
  -OEChem-02201314323D

 22 23  0     1  0  0  0  0  0999 V2000
   -0.6538   -0.8506   -0.2234 C   0  0  0  0  0  0  0  0  0  0  0  0
    0.1836   -2.1278   -0.3962 C   0  0  0  0  0  0  0  0  0  0  0  0
   -0.2219   -1.1882   -2.5381 C   0  0  0  0  0  0  0  0  0  0  0  0
   -2.4054   -1.7649   -1.7693 C   0  0  0  0  0  0  0  0  0  0  0  0
   -1.3189   -0.6837   -1.6012 C   0  0  1  0  0  0  0  0  0  0  0  0
   -0.1266   -2.5504   -1.8441 C   0  0  2  0  0  0  0  0  0  0  0  0
   -1.5802   -3.0561   -1.8884 C   0  0  1  0  0  0  0  0  0  0  0  0
   -1.8560   -3.7157   -3.1884 N   0  3  0  0  0  0  0  0  0  0  0  0
   -1.3835   -0.9435    0.5872 H   0  0  0  0  0  0  0  0  0  0  0  0
   -0.0005    0.0003   -0.0000 H   0  0  0  0  0  0  0  0  0  0  0  0
    1.2487   -1.8990   -0.2771 H   0  0  0  0  0  0  0  0  0  0  0  0
   -0.0840   -2.8971    0.3350 H   0  0  0  0  0  0  0  0  0  0  0  0
   -0.5387   -1.2442   -3.5839 H   0  0  0  0  0  0  0  0  0  0  0  0
    0.7026   -0.6046   -2.4708 H   0  0  0  0  0  0  0  0  0  0  0  0
   -3.0809   -1.7956   -0.9079 H   0  0  0  0  0  0  0  0  0  0  0  0
   -3.0062   -1.5698   -2.6653 H   0  0  0  0  0  0  0  0  0  0  0  0
   -1.6770    0.3293   -1.7943 H   0  0  0  0  0  0  0  0  0  0  0  0
    0.6101   -3.2396   -2.2629 H   0  0  0  0  0  0  0  0  0  0  0  0
   -1.8135   -3.7871   -1.1082 H   0  0  0  0  0  0  0  0  0  0  0  0
   -1.2785   -4.5553   -3.3036 H   0  0  0  0  0  0  0  0  0  0  0  0
   -1.6538   -3.0832   -3.9702 H   0  0  0  0  0  0  0  0  0  0  0  0
   -2.8400   -3.9970   -3.2555 H   0  0  0  0  0  0  0  0  0  0  0  0
  1  2  1  0  0  0  0
  1  5  1  0  0  0  0
  2  6  1  0  0  0  0
  3  5  1  1  0  0  0
  3  6  1  6  0  0  0
  4  5  1  0  0  0  0
  4  7  1  0  0  0  0
  6  7  1  0  0  0  0
  7  8  1  6  0  0  0
  1  9  1  0  0  0  0
  1 10  1  0  0  0  0
  2 11  1  0  0  0  0
  2 12  1  0  0  0  0
  3 13  1  0  0  0  0
  3 14  1  0  0  0  0
  4 15  1  0  0  0  0
  4 16  1  0  0  0  0
  5 17  1  0  0  0  0
  6 18  1  0  0  0  0
  7 19  1  0  0  0  0
  8 20  1  0  0  0  0
  8 21  1  0  0  0  0
  8 22  1  0  0  0  0
M  CHG  1   8   1
M  END
$$$$
