
  -OEChem-02151316303D

 30 32  0     1  0  0  0  0  0999 V2000
   -0.5125    0.7898   -0.5629 C   0  0  0  0  0  0  0  0  0  0  0  0
   -2.7177    1.8984   -1.0224 C   0  0  0  0  0  0  0  0  0  0  0  0
   -0.9910    1.7197   -2.8451 C   0  0  0  0  0  0  0  0  0  0  0  0
   -2.6069   -0.5841   -0.6775 C   0  0  0  0  0  0  0  0  0  0  0  0
   -0.8872   -0.7623   -2.4962 C   0  0  0  0  0  0  0  0  0  0  0  0
   -3.0924    0.3427   -2.9633 C   0  0  0  0  0  0  0  0  0  0  0  0
   -2.0185    0.7687   -0.2425 C   0  0  1  0  0  0  0  0  0  0  0  0
   -0.2861    0.5886   -2.0726 C   0  0  2  0  0  0  0  0  0  0  0  0
   -2.4969    1.6920   -2.5312 C   0  0  0  0  0  0  0  0  0  0  0  0
   -2.3949   -0.7915   -2.1886 C   0  0  0  0  0  0  0  0  0  0  0  0
   -3.1712    2.7844   -3.2770 N   0  3  0  0  0  0  0  0  0  0  0  0
   -2.9436   -2.0461   -2.5657 O   0  0  0  0  0  0  0  0  0  0  0  0
   -0.0758    1.7440   -0.2434 H   0  0  0  0  0  0  0  0  0  0  0  0
   -0.0000   -0.0001   -0.0001 H   0  0  0  0  0  0  0  0  0  0  0  0
   -3.7896    1.9027   -0.7862 H   0  0  0  0  0  0  0  0  0  0  0  0
   -2.3183    2.8698   -0.7035 H   0  0  0  0  0  0  0  0  0  0  0  0
   -0.5557    2.6871   -2.5634 H   0  0  0  0  0  0  0  0  0  0  0  0
   -0.8188    1.5952   -3.9220 H   0  0  0  0  0  0  0  0  0  0  0  0
   -2.1401   -1.4035   -0.1155 H   0  0  0  0  0  0  0  0  0  0  0  0
   -3.6770   -0.6311   -0.4371 H   0  0  0  0  0  0  0  0  0  0  0  0
   -0.7162   -0.9374   -3.5663 H   0  0  0  0  0  0  0  0  0  0  0  0
   -0.3813   -1.5868   -1.9773 H   0  0  0  0  0  0  0  0  0  0  0  0
   -4.1747    0.3105   -2.7784 H   0  0  0  0  0  0  0  0  0  0  0  0
   -2.9739    0.1871   -4.0442 H   0  0  0  0  0  0  0  0  0  0  0  0
   -2.1710    0.9114    0.8331 H   0  0  0  0  0  0  0  0  0  0  0  0
    0.7871    0.6028   -2.2920 H   0  0  0  0  0  0  0  0  0  0  0  0
   -2.4852    3.4388   -3.6671 H   0  0  0  0  0  0  0  0  0  0  0  0
   -3.7993    3.3127   -2.6624 H   0  0  0  0  0  0  0  0  0  0  0  0
   -3.7277    2.4089   -4.0520 H   0  0  0  0  0  0  0  0  0  0  0  0
   -2.7929   -2.1434   -3.5201 H   0  0  0  0  0  0  0  0  0  0  0  0
  1  7  1  0  0  0  0
  1  8  1  0  0  0  0
  2  7  1  0  0  0  0
  2  9  1  0  0  0  0
  3  8  1  0  0  0  0
  3  9  1  0  0  0  0
  4  7  1  0  0  0  0
  4 10  1  0  0  0  0
  5  8  1  0  0  0  0
  5 10  1  0  0  0  0
  6  9  1  0  0  0  0
  6 10  1  0  0  0  0
  9 11  1  0  0  0  0
 10 12  1  0  0  0  0
  1 13  1  0  0  0  0
  1 14  1  0  0  0  0
  2 15  1  0  0  0  0
  2 16  1  0  0  0  0
  3 17  1  0  0  0  0
  3 18  1  0  0  0  0
  4 19  1  0  0  0  0
  4 20  1  0  0  0  0
  5 21  1  0  0  0  0
  5 22  1  0  0  0  0
  6 23  1  0  0  0  0
  6 24  1  0  0  0  0
  7 25  1  0  0  0  0
  8 26  1  0  0  0  0
 11 27  1  0  0  0  0
 11 28  1  0  0  0  0
 11 29  1  0  0  0  0
 12 30  1  0  0  0  0
M  CHG  1  11   1
M  END
$$$$
