
  -OEChem-02151316293D

 22 22  0     1  0  0  0  0  0999 V2000
    0.5756    1.0429   -0.8716 C   0  0  0  0  0  0  0  0  0  0  0  0
   -0.5874    0.3966    1.2914 C   0  0  0  0  0  0  0  0  0  0  0  0
    0.5863   -0.4269   -1.3012 C   0  0  0  0  0  0  0  0  0  0  0  0
   -0.5758   -1.0713    0.8548 C   0  0  0  0  0  0  0  0  0  0  0  0
    0.5243    1.2238    0.6456 C   0  0  1  0  0  0  0  0  0  0  0  0
   -0.5553   -1.2218   -0.6661 C   0  0  1  0  0  0  0  0  0  0  0  0
    1.8366    0.8265    1.2328 N   0  3  0  0  0  0  0  0  0  0  0  0
   -1.8044   -0.7698   -1.1858 O   0  0  0  0  0  0  0  0  0  0  0  0
    1.4537    1.5505   -1.2887 H   0  0  0  0  0  0  0  0  0  0  0  0
   -0.3018    1.5337   -1.3120 H   0  0  0  0  0  0  0  0  0  0  0  0
   -1.5546    0.8380    1.0192 H   0  0  0  0  0  0  0  0  0  0  0  0
   -0.5206    0.4519    2.3849 H   0  0  0  0  0  0  0  0  0  0  0  0
    0.5029   -0.4682   -2.3940 H   0  0  0  0  0  0  0  0  0  0  0  0
    1.5457   -0.8842   -1.0329 H   0  0  0  0  0  0  0  0  0  0  0  0
    0.2966   -1.5774    1.2843 H   0  0  0  0  0  0  0  0  0  0  0  0
   -1.4664   -1.5613    1.2661 H   0  0  0  0  0  0  0  0  0  0  0  0
    0.4014    2.2832    0.8961 H   0  0  0  0  0  0  0  0  0  0  0  0
   -0.4580   -2.2809   -0.9288 H   0  0  0  0  0  0  0  0  0  0  0  0
    1.6971    0.2393    2.0584 H   0  0  0  0  0  0  0  0  0  0  0  0
    2.3695    1.6539    1.5115 H   0  0  0  0  0  0  0  0  0  0  0  0
    2.3896    0.3004    0.5520 H   0  0  0  0  0  0  0  0  0  0  0  0
   -1.7731   -0.9168   -2.1435 H   0  0  0  0  0  0  0  0  0  0  0  0
  1  3  1  0  0  0  0
  1  5  1  0  0  0  0
  2  4  1  0  0  0  0
  2  5  1  0  0  0  0
  3  6  1  0  0  0  0
  4  6  1  0  0  0  0
  5  7  1  0  0  0  0
  6  8  1  0  0  0  0
  1  9  1  0  0  0  0
  1 10  1  0  0  0  0
  2 11  1  0  0  0  0
  2 12  1  0  0  0  0
  3 13  1  0  0  0  0
  3 14  1  0  0  0  0
  4 15  1  0  0  0  0
  4 16  1  0  0  0  0
  5 17  1  0  0  0  0
  6 18  1  0  0  0  0
  7 19  1  0  0  0  0
  7 20  1  0  0  0  0
  7 21  1  0  0  0  0
  8 22  1  0  0  0  0
M  CHG  1   7   1
M  END
$$$$
