
  -OEChem-02151316293D

 21 21  0     0  0  0  0  0  0999 V2000
   -0.5747    0.8755   -0.3269 C   0  0  0  0  0  0  0  0  0  0  0  0
   -1.9269    0.4191   -0.8673 C   0  0  0  0  0  0  0  0  0  0  0  0
   -0.7269    1.8452    0.8415 C   0  0  0  0  0  0  0  0  0  0  0  0
   -2.8057   -0.1717    0.2351 C   0  0  0  0  0  0  0  0  0  0  0  0
   -1.6003    1.2597    1.9511 C   0  0  0  0  0  0  0  0  0  0  0  0
   -2.9508    0.7502    1.4463 C   0  0  0  0  0  0  0  0  0  0  0  0
   -3.8091    1.9136    1.0788 N   0  3  0  0  0  0  0  0  0  0  0  0
   -0.0001    0.0002    0.0005 H   0  0  0  0  0  0  0  0  0  0  0  0
    0.0004    1.3519   -1.1288 H   0  0  0  0  0  0  0  0  0  0  0  0
   -2.4382    1.2655   -1.3407 H   0  0  0  0  0  0  0  0  0  0  0  0
   -1.7733   -0.3314   -1.6513 H   0  0  0  0  0  0  0  0  0  0  0  0
    0.2628    2.0881    1.2454 H   0  0  0  0  0  0  0  0  0  0  0  0
   -1.1579    2.7875    0.4832 H   0  0  0  0  0  0  0  0  0  0  0  0
   -3.7903   -0.4233   -0.1773 H   0  0  0  0  0  0  0  0  0  0  0  0
   -2.3574   -1.1168    0.5678 H   0  0  0  0  0  0  0  0  0  0  0  0
   -1.0621    0.4215    2.4123 H   0  0  0  0  0  0  0  0  0  0  0  0
   -1.7424    2.0085    2.7396 H   0  0  0  0  0  0  0  0  0  0  0  0
   -3.4856    0.2357    2.2519 H   0  0  0  0  0  0  0  0  0  0  0  0
   -3.2424    2.7584    0.9734 H   0  0  0  0  0  0  0  0  0  0  0  0
   -4.5108    2.0840    1.8032 H   0  0  0  0  0  0  0  0  0  0  0  0
   -4.2933    1.7373    0.1953 H   0  0  0  0  0  0  0  0  0  0  0  0
  1  2  1  0  0  0  0
  1  3  1  0  0  0  0
  2  4  1  0  0  0  0
  3  5  1  0  0  0  0
  4  6  1  0  0  0  0
  5  6  1  0  0  0  0
  6  7  1  0  0  0  0
  1  8  1  0  0  0  0
  1  9  1  0  0  0  0
  2 10  1  0  0  0  0
  2 11  1  0  0  0  0
  3 12  1  0  0  0  0
  3 13  1  0  0  0  0
  4 14  1  0  0  0  0
  4 15  1  0  0  0  0
  5 16  1  0  0  0  0
  5 17  1  0  0  0  0
  6 18  1  0  0  0  0
  7 19  1  0  0  0  0
  7 20  1  0  0  0  0
  7 21  1  0  0  0  0
M  CHG  1   7   1
M  END
$$$$
