
  -OEChem-02201311153D

 14 14  0     0  0  0  0  0  0999 V2000
    1.8851   -1.0363   -0.1124 C   0  0  0  0  0  0  0  0  0  0  0  0
    0.8066   -0.4630    0.5610 C   0  0  0  0  0  0  0  0  0  0  0  0
    2.9210   -1.6309    0.6081 C   0  0  0  0  0  0  0  0  0  0  0  0
    0.7638   -0.4841    1.9551 C   0  0  0  0  0  0  0  0  0  0  0  0
    2.8783   -1.6520    2.0022 C   0  0  0  0  0  0  0  0  0  0  0  0
    1.7997   -1.0786    2.6757 C   0  0  0  0  0  0  0  0  0  0  0  0
    1.7537   -1.1018    4.1468 C   0  0  0  0  0  0  0  0  0  0  0  0
    2.7225   -1.6571    4.7883 O   0  5  0  0  0  0  0  0  0  0  0  0
    0.7460   -0.5663    4.7437 O   0  0  0  0  0  0  0  0  0  0  0  0
    1.9180   -1.0205   -1.1979 H   0  0  0  0  0  0  0  0  0  0  0  0
    0.0005   -0.0001   -0.0009 H   0  0  0  0  0  0  0  0  0  0  0  0
    3.7607   -2.0768    0.0830 H   0  0  0  0  0  0  0  0  0  0  0  0
   -0.0811   -0.0344    2.4703 H   0  0  0  0  0  0  0  0  0  0  0  0
    3.6905   -2.1176    2.5545 H   0  0  0  0  0  0  0  0  0  0  0  0
  1  2  1  0  0  0  0
  1  3  2  0  0  0  0
  2  4  2  0  0  0  0
  3  5  1  0  0  0  0
  4  6  1  0  0  0  0
  5  6  2  0  0  0  0
  6  7  1  0  0  0  0
  7  8  1  0  0  0  0
  7  9  2  0  0  0  0
  1 10  1  0  0  0  0
  2 11  1  0  0  0  0
  3 12  1  0  0  0  0
  4 13  1  0  0  0  0
  5 14  1  0  0  0  0
M  CHG  1   8  -1
M  END
$$$$
