
  -OEChem-02201311153D

 20 20  0     0  0  0  0  0  0999 V2000
    1.8851   -1.0363   -0.1124 C   0  0  0  0  0  0  0  0  0  0  0  0
    2.8783   -1.6520    2.0022 C   0  0  0  0  0  0  0  0  0  0  0  0
    0.8066   -0.4630    0.5610 C   0  0  0  0  0  0  0  0  0  0  0  0
    1.7997   -1.0786    2.6757 C   0  0  0  0  0  0  0  0  0  0  0  0
    2.9210   -1.6309    0.6081 C   0  0  0  0  0  0  0  0  0  0  0  0
    0.7638   -0.4841    1.9551 C   0  0  0  0  0  0  0  0  0  0  0  0
    4.0584   -2.2362   -0.1030 C   0  0  0  0  0  0  0  0  0  0  0  0
   -0.1539    1.6066    2.9910 C   0  0  0  0  0  0  0  0  0  0  0  0
   -0.3883    0.1318    2.6741 C   0  0  0  0  0  0  0  0  0  0  0  0
    5.0023   -2.7785    0.5853 O   0  5  0  0  0  0  0  0  0  0  0  0
    4.0730   -2.2035   -1.3905 O   0  0  0  0  0  0  0  0  0  0  0  0
    1.9087   -1.0146   -1.1991 H   0  0  0  0  0  0  0  0  0  0  0  0
    3.6803   -2.1128    2.5726 H   0  0  0  0  0  0  0  0  0  0  0  0
    0.0042   -0.0023   -0.0092 H   0  0  0  0  0  0  0  0  0  0  0  0
    1.7748   -1.0998    3.7619 H   0  0  0  0  0  0  0  0  0  0  0  0
    0.7569    1.7409    3.5843 H   0  0  0  0  0  0  0  0  0  0  0  0
   -0.9931    2.0189    3.5599 H   0  0  0  0  0  0  0  0  0  0  0  0
   -0.0460    2.1933    2.0724 H   0  0  0  0  0  0  0  0  0  0  0  0
   -1.3099    0.0340    2.0780 H   0  0  0  0  0  0  0  0  0  0  0  0
   -0.5898   -0.4101    3.6123 H   0  0  0  0  0  0  0  0  0  0  0  0
  1  3  2  0  0  0  0
  1  5  1  0  0  0  0
  2  4  1  0  0  0  0
  2  5  2  0  0  0  0
  3  6  1  0  0  0  0
  4  6  2  0  0  0  0
  5  7  1  0  0  0  0
  6  9  1  0  0  0  0
  7 10  1  0  0  0  0
  7 11  2  0  0  0  0
  8  9  1  0  0  0  0
  1 12  1  0  0  0  0
  2 13  1  0  0  0  0
  3 14  1  0  0  0  0
  4 15  1  0  0  0  0
  8 16  1  0  0  0  0
  8 17  1  0  0  0  0
  8 18  1  0  0  0  0
  9 19  1  0  0  0  0
  9 20  1  0  0  0  0
M  CHG  1  10  -1
M  END
$$$$
