
  -OEChem-02201311153D

 23 23  0     1  0  0  0  0  0999 V2000
    0.8944   -0.4050   -0.4940 C   0  0  0  0  0  0  0  0  0  0  0  0
    0.5628   -2.8465   -0.6385 C   0  0  0  0  0  0  0  0  0  0  0  0
   -0.3593   -1.3177   -2.4260 C   0  0  0  0  0  0  0  0  0  0  0  0
    0.3477   -4.0488   -1.5554 C   0  0  0  0  0  0  0  0  0  0  0  0
   -0.5729   -2.5191   -3.3442 C   0  0  0  0  0  0  0  0  0  0  0  0
    0.7815   -1.5621   -1.4383 C   0  0  1  0  0  0  0  0  0  0  0  0
   -0.8006   -3.8091   -2.5448 C   0  0  1  0  0  0  0  0  0  0  0  0
   -0.9621   -5.0035   -3.4832 C   0  0  0  0  0  0  0  0  0  0  0  0
   -0.1257   -0.1879    0.2170 O   0  5  0  0  0  0  0  0  0  0  0  0
    2.0000    0.2044   -0.5329 O   0  0  0  0  0  0  0  0  0  0  0  0
   -0.3051   -2.7404    0.0258 H   0  0  0  0  0  0  0  0  0  0  0  0
    1.4265   -3.0328    0.0117 H   0  0  0  0  0  0  0  0  0  0  0  0
   -0.1447   -0.4285   -3.0314 H   0  0  0  0  0  0  0  0  0  0  0  0
   -1.2924   -1.1057   -1.8872 H   0  0  0  0  0  0  0  0  0  0  0  0
    1.2764   -4.2536   -2.1033 H   0  0  0  0  0  0  0  0  0  0  0  0
    0.1372   -4.9354   -0.9455 H   0  0  0  0  0  0  0  0  0  0  0  0
   -1.4329   -2.3273   -3.9969 H   0  0  0  0  0  0  0  0  0  0  0  0
    0.3019   -2.6334   -3.9973 H   0  0  0  0  0  0  0  0  0  0  0  0
    1.7410   -1.6517   -2.0079 H   0  0  0  0  0  0  0  0  0  0  0  0
   -1.7320   -3.7009   -1.9731 H   0  0  0  0  0  0  0  0  0  0  0  0
   -0.0532   -5.1394   -4.0669 H   0  0  0  0  0  0  0  0  0  0  0  0
   -1.7978   -4.8311   -4.1591 H   0  0  0  0  0  0  0  0  0  0  0  0
   -1.1520   -5.9051   -2.9033 H   0  0  0  0  0  0  0  0  0  0  0  0
  1  6  1  0  0  0  0
  1  9  1  0  0  0  0
  1 10  2  0  0  0  0
  2  4  1  0  0  0  0
  2  6  1  0  0  0  0
  3  5  1  0  0  0  0
  3  6  1  0  0  0  0
  4  7  1  0  0  0  0
  5  7  1  0  0  0  0
  7  8  1  0  0  0  0
  2 11  1  0  0  0  0
  2 12  1  0  0  0  0
  3 13  1  0  0  0  0
  3 14  1  0  0  0  0
  4 15  1  0  0  0  0
  4 16  1  0  0  0  0
  5 17  1  0  0  0  0
  5 18  1  0  0  0  0
  6 19  1  0  0  0  0
  7 20  1  0  0  0  0
  8 21  1  0  0  0  0
  8 22  1  0  0  0  0
  8 23  1  0  0  0  0
M  CHG  1   9  -1
M  END
$$$$

  -OEChem-02201311153D

 23 23  0     1  0  0  0  0  0999 V2000
    0.8944   -0.4050   -0.4940 C   0  0  0  0  0  0  0  0  0  0  0  0
    0.5628   -2.8465   -0.6385 C   0  0  0  0  0  0  0  0  0  0  0  0
   -0.3593   -1.3177   -2.4260 C   0  0  0  0  0  0  0  0  0  0  0  0
    0.3477   -4.0488   -1.5554 C   0  0  0  0  0  0  0  0  0  0  0  0
   -0.5729   -2.5191   -3.3442 C   0  0  0  0  0  0  0  0  0  0  0  0
    0.7815   -1.5621   -1.4383 C   0  0  1  0  0  0  0  0  0  0  0  0
   -0.8006   -3.8091   -2.5448 C   0  0  1  0  0  0  0  0  0  0  0  0
   -0.9621   -5.0035   -3.4832 C   0  0  0  0  0  0  0  0  0  0  0  0
    1.3474   -0.6853    0.6503 O   0  5  0  0  0  0  0  0  0  0  0  0
    0.5201    0.7041   -0.9681 O   0  0  0  0  0  0  0  0  0  0  0  0
   -0.3051   -2.7404    0.0258 H   0  0  0  0  0  0  0  0  0  0  0  0
    1.4265   -3.0328    0.0117 H   0  0  0  0  0  0  0  0  0  0  0  0
   -0.1447   -0.4285   -3.0314 H   0  0  0  0  0  0  0  0  0  0  0  0
   -1.2924   -1.1057   -1.8872 H   0  0  0  0  0  0  0  0  0  0  0  0
    1.2764   -4.2536   -2.1033 H   0  0  0  0  0  0  0  0  0  0  0  0
    0.1372   -4.9354   -0.9455 H   0  0  0  0  0  0  0  0  0  0  0  0
   -1.4329   -2.3273   -3.9969 H   0  0  0  0  0  0  0  0  0  0  0  0
    0.3019   -2.6334   -3.9973 H   0  0  0  0  0  0  0  0  0  0  0  0
    1.7410   -1.6517   -2.0079 H   0  0  0  0  0  0  0  0  0  0  0  0
   -1.7320   -3.7009   -1.9731 H   0  0  0  0  0  0  0  0  0  0  0  0
   -0.0532   -5.1394   -4.0669 H   0  0  0  0  0  0  0  0  0  0  0  0
   -1.7978   -4.8311   -4.1591 H   0  0  0  0  0  0  0  0  0  0  0  0
   -1.1520   -5.9051   -2.9033 H   0  0  0  0  0  0  0  0  0  0  0  0
  1  6  1  0  0  0  0
  1  9  1  0  0  0  0
  1 10  2  0  0  0  0
  2  4  1  0  0  0  0
  2  6  1  0  0  0  0
  3  5  1  0  0  0  0
  3  6  1  0  0  0  0
  4  7  1  0  0  0  0
  5  7  1  0  0  0  0
  7  8  1  0  0  0  0
  2 11  1  0  0  0  0
  2 12  1  0  0  0  0
  3 13  1  0  0  0  0
  3 14  1  0  0  0  0
  4 15  1  0  0  0  0
  4 16  1  0  0  0  0
  5 17  1  0  0  0  0
  5 18  1  0  0  0  0
  6 19  1  0  0  0  0
  7 20  1  0  0  0  0
  8 21  1  0  0  0  0
  8 22  1  0  0  0  0
  8 23  1  0  0  0  0
M  CHG  1   9  -1
M  END
$$$$

  -OEChem-02201311153D

 23 23  0     1  0  0  0  0  0999 V2000
    1.0403   -0.3470    0.0609 C   0  0  0  0  0  0  0  0  0  0  0  0
    1.1510   -2.7442   -0.5786 C   0  0  0  0  0  0  0  0  0  0  0  0
    1.1922   -0.9226   -2.3645 C   0  0  0  0  0  0  0  0  0  0  0  0
   -0.3077   -3.0356   -0.9332 C   0  0  0  0  0  0  0  0  0  0  0  0
   -0.2627   -1.2460   -2.7094 C   0  0  0  0  0  0  0  0  0  0  0  0
    1.5849   -1.3233   -0.9415 C   0  0  1  0  0  0  0  0  0  0  0  0
   -0.6559   -2.6929   -2.3870 C   0  0  1  0  0  0  0  0  0  0  0  0
   -0.0283   -3.6838   -3.3708 C   0  0  0  0  0  0  0  0  0  0  0  0
    0.8249   -0.8193    1.2114 O   0  5  0  0  0  0  0  0  0  0  0  0
    0.8681    0.8241   -0.3798 O   0  0  0  0  0  0  0  0  0  0  0  0
    1.3001   -2.9250    0.5011 H   0  0  0  0  0  0  0  0  0  0  0  0
    1.8021   -3.4743   -1.0896 H   0  0  0  0  0  0  0  0  0  0  0  0
    1.8577   -1.4253   -3.0896 H   0  0  0  0  0  0  0  0  0  0  0  0
    1.3637    0.1599   -2.5166 H   0  0  0  0  0  0  0  0  0  0  0  0
   -0.5157   -4.1027   -0.7407 H   0  0  0  0  0  0  0  0  0  0  0  0
   -0.9634   -2.4716   -0.2485 H   0  0  0  0  0  0  0  0  0  0  0  0
   -0.9240   -0.5490   -2.1660 H   0  0  0  0  0  0  0  0  0  0  0  0
   -0.4291   -1.0434   -3.7828 H   0  0  0  0  0  0  0  0  0  0  0  0
    2.7237   -1.2807   -0.8686 H   0  0  0  0  0  0  0  0  0  0  0  0
   -1.7590   -2.7721   -2.4952 H   0  0  0  0  0  0  0  0  0  0  0  0
    1.0570   -3.6389   -3.2977 H   0  0  0  0  0  0  0  0  0  0  0  0
   -0.3280   -3.4343   -4.3872 H   0  0  0  0  0  0  0  0  0  0  0  0
   -0.3602   -4.6944   -3.1386 H   0  0  0  0  0  0  0  0  0  0  0  0
  1  6  1  0  0  0  0
  1  9  1  0  0  0  0
  1 10  2  0  0  0  0
  2  4  1  0  0  0  0
  2  6  1  0  0  0  0
  3  5  1  0  0  0  0
  3  6  1  0  0  0  0
  4  7  1  0  0  0  0
  5  7  1  0  0  0  0
  7  8  1  0  0  0  0
  2 11  1  0  0  0  0
  2 12  1  0  0  0  0
  3 13  1  0  0  0  0
  3 14  1  0  0  0  0
  4 15  1  0  0  0  0
  4 16  1  0  0  0  0
  5 17  1  0  0  0  0
  5 18  1  0  0  0  0
  6 19  1  0  0  0  0
  7 20  1  0  0  0  0
  8 21  1  0  0  0  0
  8 22  1  0  0  0  0
  8 23  1  0  0  0  0
M  CHG  1   9  -1
M  END
$$$$

  -OEChem-02201311153D

 23 23  0     1  0  0  0  0  0999 V2000
    1.0403   -0.3470    0.0609 C   0  0  0  0  0  0  0  0  0  0  0  0
    1.1510   -2.7442   -0.5786 C   0  0  0  0  0  0  0  0  0  0  0  0
    1.1922   -0.9226   -2.3645 C   0  0  0  0  0  0  0  0  0  0  0  0
   -0.3077   -3.0356   -0.9332 C   0  0  0  0  0  0  0  0  0  0  0  0
   -0.2627   -1.2460   -2.7094 C   0  0  0  0  0  0  0  0  0  0  0  0
    1.5849   -1.3233   -0.9415 C   0  0  1  0  0  0  0  0  0  0  0  0
   -0.6559   -2.6929   -2.3870 C   0  0  1  0  0  0  0  0  0  0  0  0
   -0.0283   -3.6838   -3.3708 C   0  0  0  0  0  0  0  0  0  0  0  0
   -0.2186   -0.2699    0.1094 O   0  5  0  0  0  0  0  0  0  0  0  0
    1.9165    0.2722    0.7273 O   0  0  0  0  0  0  0  0  0  0  0  0
    1.3001   -2.9250    0.5011 H   0  0  0  0  0  0  0  0  0  0  0  0
    1.8021   -3.4743   -1.0896 H   0  0  0  0  0  0  0  0  0  0  0  0
    1.8577   -1.4253   -3.0896 H   0  0  0  0  0  0  0  0  0  0  0  0
    1.3637    0.1599   -2.5166 H   0  0  0  0  0  0  0  0  0  0  0  0
   -0.5157   -4.1027   -0.7407 H   0  0  0  0  0  0  0  0  0  0  0  0
   -0.9634   -2.4716   -0.2485 H   0  0  0  0  0  0  0  0  0  0  0  0
   -0.9240   -0.5490   -2.1660 H   0  0  0  0  0  0  0  0  0  0  0  0
   -0.4291   -1.0434   -3.7828 H   0  0  0  0  0  0  0  0  0  0  0  0
    2.7237   -1.2807   -0.8686 H   0  0  0  0  0  0  0  0  0  0  0  0
   -1.7590   -2.7721   -2.4952 H   0  0  0  0  0  0  0  0  0  0  0  0
    1.0570   -3.6389   -3.2977 H   0  0  0  0  0  0  0  0  0  0  0  0
   -0.3280   -3.4343   -4.3872 H   0  0  0  0  0  0  0  0  0  0  0  0
   -0.3602   -4.6944   -3.1386 H   0  0  0  0  0  0  0  0  0  0  0  0
  1  6  1  0  0  0  0
  1  9  1  0  0  0  0
  1 10  2  0  0  0  0
  2  4  1  0  0  0  0
  2  6  1  0  0  0  0
  3  5  1  0  0  0  0
  3  6  1  0  0  0  0
  4  7  1  0  0  0  0
  5  7  1  0  0  0  0
  7  8  1  0  0  0  0
  2 11  1  0  0  0  0
  2 12  1  0  0  0  0
  3 13  1  0  0  0  0
  3 14  1  0  0  0  0
  4 15  1  0  0  0  0
  4 16  1  0  0  0  0
  5 17  1  0  0  0  0
  5 18  1  0  0  0  0
  6 19  1  0  0  0  0
  7 20  1  0  0  0  0
  8 21  1  0  0  0  0
  8 22  1  0  0  0  0
  8 23  1  0  0  0  0
M  CHG  1   9  -1
M  END
$$$$
