AVX17557_3
  -OEChem-04011314543D

 59 62  0     1  0  0  0  0  0999 V2000
    0.8227    2.4972    0.7613 C   0  0  0  0  0  0  0  0  0  0  0  0
   -0.4669    2.5713    0.2131 C   0  0  0  0  0  0  0  0  0  0  0  0
    1.5390    1.2996    0.7338 C   0  0  0  0  0  0  0  0  0  0  0  0
   -1.0594    1.4490   -0.3711 C   0  0  0  0  0  0  0  0  0  0  0  0
   -2.4796   -3.8559   -1.4741 C   0  0  0  0  0  0  0  0  0  0  0  0
   -2.8336   -4.8738   -2.3629 C   0  0  0  0  0  0  0  0  0  0  0  0
   -3.0745   -2.1579   -3.1146 C   0  0  0  0  0  0  0  0  0  0  0  0
    0.9389    0.1885    0.1645 C   0  0  0  0  0  0  0  0  0  0  0  0
   -0.3497    0.2584   -0.3845 C   0  0  0  0  0  0  0  0  0  0  0  0
   -2.5995   -2.5057   -1.8477 C   0  0  0  0  0  0  0  0  0  0  0  0
   -3.2998   -4.5036   -3.6076 C   0  0  0  0  0  0  0  0  0  0  0  0
   -3.4172   -3.1820   -3.9733 C   0  0  0  0  0  0  0  0  0  0  0  0
   -3.2102   -0.7525   -3.5295 C   0  0  0  0  0  0  0  0  0  0  0  0
    0.1175   -3.7717    1.5112 C   0  0  0  0  0  0  0  0  0  0  0  0
    1.5227   -1.1831   -0.0012 C   0  0  0  0  0  0  0  0  0  0  0  0
   -4.0662   -4.4145   -5.6292 C   0  0  0  0  0  0  0  0  0  0  0  0
   -0.7357   -1.0684   -0.9834 C   0  0  1  0  0  0  0  0  0  0  0  0
    0.2556   -2.0223   -0.2630 C   0  0  2  0  0  0  0  0  0  0  0  0
   -2.2053   -1.4449   -0.8546 C   0  0  0  0  0  0  0  0  0  0  0  0
   -0.6074   -4.0688    2.8138 C   0  0  0  0  0  0  0  0  0  0  0  0
   -0.2265   -5.4103    3.4384 C   0  0  0  0  0  0  0  0  0  0  0  0
   -0.9700   -5.6744    4.7525 C   0  0  0  0  0  0  0  0  0  0  0  0
   -0.5483   -7.0134    5.3654 C   0  0  0  0  0  0  0  0  0  0  0  0
   -1.2488   -7.3251    6.6822 C   0  0  0  0  0  0  0  0  0  0  0  0
   -0.2619   -2.5453    0.9850 N   0  0  0  0  0  0  0  0  0  0  0  0
   -2.7166   -7.3950    6.4910 N   0  3  0  0  0  0  0  0  0  0  0  0
   -4.3230   -0.1443   -3.3044 O   0  5  0  0  0  0  0  0  0  0  0  0
   -2.2119   -0.1767   -4.1046 O   0  0  0  0  0  0  0  0  0  0  0  0
    0.9194   -4.5458    0.9959 O   0  0  0  0  0  0  0  0  0  0  0  0
   -3.6905   -5.3507   -4.5983 O   0  0  0  0  0  0  0  0  0  0  0  0
   -3.8957   -3.0364   -5.2389 O   0  0  0  0  0  0  0  0  0  0  0  0
    1.2689    3.3828    1.2056 H   0  0  0  0  0  0  0  0  0  0  0  0
   -1.0066    3.5142    0.2372 H   0  0  0  0  0  0  0  0  0  0  0  0
    2.5395    1.2462    1.1494 H   0  0  0  0  0  0  0  0  0  0  0  0
   -2.0502    1.5210   -0.8061 H   0  0  0  0  0  0  0  0  0  0  0  0
   -2.1094   -4.1181   -0.4858 H   0  0  0  0  0  0  0  0  0  0  0  0
   -2.7428   -5.9160   -2.0788 H   0  0  0  0  0  0  0  0  0  0  0  0
    2.1846   -1.1908   -0.8739 H   0  0  0  0  0  0  0  0  0  0  0  0
    2.0709   -1.5091    0.8880 H   0  0  0  0  0  0  0  0  0  0  0  0
   -3.4531   -4.6059   -6.5173 H   0  0  0  0  0  0  0  0  0  0  0  0
   -5.1190   -4.5789   -5.8858 H   0  0  0  0  0  0  0  0  0  0  0  0
   -0.4715   -1.0323   -2.0492 H   0  0  0  0  0  0  0  0  0  0  0  0
    0.4802   -2.8981   -0.8811 H   0  0  0  0  0  0  0  0  0  0  0  0
   -2.8281   -0.5541   -0.9974 H   0  0  0  0  0  0  0  0  0  0  0  0
   -2.4080   -1.7972    0.1636 H   0  0  0  0  0  0  0  0  0  0  0  0
   -0.4257   -3.2542    3.5245 H   0  0  0  0  0  0  0  0  0  0  0  0
   -1.6806   -4.0758    2.5869 H   0  0  0  0  0  0  0  0  0  0  0  0
   -0.4743   -6.2066    2.7257 H   0  0  0  0  0  0  0  0  0  0  0  0
    0.8561   -5.4583    3.6062 H   0  0  0  0  0  0  0  0  0  0  0  0
   -2.0506   -5.6821    4.5652 H   0  0  0  0  0  0  0  0  0  0  0  0
   -0.7703   -4.8614    5.4582 H   0  0  0  0  0  0  0  0  0  0  0  0
   -0.7805   -7.8187    4.6576 H   0  0  0  0  0  0  0  0  0  0  0  0
    0.5390   -7.0256    5.5110 H   0  0  0  0  0  0  0  0  0  0  0  0
   -0.9328   -8.2849    7.1012 H   0  0  0  0  0  0  0  0  0  0  0  0
   -1.0684   -6.5332    7.4151 H   0  0  0  0  0  0  0  0  0  0  0  0
   -0.9358   -1.9865    1.5002 H   0  0  0  0  0  0  0  0  0  0  0  0
   -2.9563   -7.4538    5.4949 H   0  0  0  0  0  0  0  0  0  0  0  0
   -3.1781   -6.5635    6.8771 H   0  0  0  0  0  0  0  0  0  0  0  0
   -3.1104   -8.2193    6.9587 H   0  0  0  0  0  0  0  0  0  0  0  0
  1  2  1  0  0  0  0
  1  3  2  0  0  0  0
  2  4  2  0  0  0  0
  3  8  1  0  0  0  0
  4  9  1  0  0  0  0
  5  6  2  0  0  0  0
  5 10  1  0  0  0  0
  6 11  1  0  0  0  0
  7 10  2  0  0  0  0
  7 12  1  0  0  0  0
  7 13  1  0  0  0  0
  8  9  2  0  0  0  0
  8 15  1  0  0  0  0
  9 17  1  0  0  0  0
 10 19  1  0  0  0  0
 11 12  2  0  0  0  0
 11 30  1  0  0  0  0
 12 31  1  0  0  0  0
 13 27  1  0  0  0  0
 13 28  2  0  0  0  0
 14 20  1  0  0  0  0
 14 25  1  0  0  0  0
 14 29  2  0  0  0  0
 15 18  1  0  0  0  0
 16 30  1  0  0  0  0
 16 31  1  0  0  0  0
 17 18  1  0  0  0  0
 17 19  1  0  0  0  0
 18 25  1  0  0  0  0
 20 21  1  0  0  0  0
 21 22  1  0  0  0  0
 22 23  1  0  0  0  0
 23 24  1  0  0  0  0
 24 26  1  0  0  0  0
  1 32  1  0  0  0  0
  2 33  1  0  0  0  0
  3 34  1  0  0  0  0
  4 35  1  0  0  0  0
  5 36  1  0  0  0  0
  6 37  1  0  0  0  0
 15 38  1  0  0  0  0
 15 39  1  0  0  0  0
 16 40  1  0  0  0  0
 16 41  1  0  0  0  0
 17 42  1  0  0  0  0
 18 43  1  0  0  0  0
 19 44  1  0  0  0  0
 19 45  1  0  0  0  0
 20 46  1  0  0  0  0
 20 47  1  0  0  0  0
 21 48  1  0  0  0  0
 21 49  1  0  0  0  0
 22 50  1  0  0  0  0
 22 51  1  0  0  0  0
 23 52  1  0  0  0  0
 23 53  1  0  0  0  0
 24 54  1  0  0  0  0
 24 55  1  0  0  0  0
 25 56  1  0  0  0  0
 26 57  1  0  0  0  0
 26 58  1  0  0  0  0
 26 59  1  0  0  0  0
M  CHG  2  26   1  27  -1
M  END
$$$$
