AVX101119_0
  -OEChem-04011314503D

 64 67  0     1  0  0  0  0  0999 V2000
   -1.5667    4.8120   -2.5564 C   0  0  0  0  0  0  0  0  0  0  0  0
   -1.4539    3.5969   -1.8809 C   0  0  0  0  0  0  0  0  0  0  0  0
    4.1841    2.2970   -2.5842 C   0  0  0  0  0  0  0  0  0  0  0  0
    2.4763    3.9859   -2.3231 C   0  0  0  0  0  0  0  0  0  0  0  0
   -1.8733    4.8278   -3.9171 C   0  0  0  0  0  0  0  0  0  0  0  0
    3.9746    2.2983   -3.9632 C   0  0  0  0  0  0  0  0  0  0  0  0
    2.2669    3.9873   -3.7021 C   0  0  0  0  0  0  0  0  0  0  0  0
    0.7042    1.9049    2.7438 C   0  0  0  0  0  0  0  0  0  0  0  0
   -1.3491    0.2943    1.6535 C   0  0  0  0  0  0  0  0  0  0  0  0
    0.8726    1.2794    1.5062 C   0  0  0  0  0  0  0  0  0  0  0  0
   -1.9542    2.4131   -3.9267 C   0  0  0  0  0  0  0  0  0  0  0  0
    3.4349    3.1407   -1.7641 C   0  0  0  0  0  0  0  0  0  0  0  0
   -1.6477    2.3975   -2.5660 C   0  0  0  0  0  0  0  0  0  0  0  0
   -0.1481    0.4787    0.9641 C   0  0  0  0  0  0  0  0  0  0  0  0
   -0.4910    1.7067    3.4041 C   0  0  0  0  0  0  0  0  0  0  0  0
   -1.4901    0.9230    2.8735 C   0  0  0  0  0  0  0  0  0  0  0  0
    3.0161    3.1435   -4.5222 C   0  0  0  0  0  0  0  0  0  0  0  0
   -2.0670    3.6283   -4.6022 C   0  0  0  0  0  0  0  0  0  0  0  0
    2.1274    1.4740    0.7912 C   0  0  0  0  0  0  0  0  0  0  0  0
   -2.1569    1.1462   -4.6572 C   0  0  0  0  0  0  0  0  0  0  0  0
   -2.1588    1.6916    4.7825 C   0  0  0  0  0  0  0  0  0  0  0  0
    0.6169    0.2248   -2.7423 C   0  0  0  0  0  0  0  0  0  0  0  0
    1.8172    4.0343   -6.3729 C   0  0  0  0  0  0  0  0  0  0  0  0
   -2.4586    4.9537   -6.5376 C   0  0  0  0  0  0  0  0  0  0  0  0
    3.6607    3.1398   -0.2798 C   0  0  0  0  0  0  0  0  0  0  0  0
   -1.5189    1.1059   -1.8136 C   0  0  0  0  0  0  0  0  0  0  0  0
    0.0284   -0.1944   -0.3591 C   0  0  0  0  0  0  0  0  0  0  0  0
    2.4634    2.7876    0.4491 N   0  0  0  0  0  0  0  0  0  0  0  0
   -0.0883    0.7377   -1.5125 N   0  3  1  0  0  0  0  0  0  0  0  0
   -1.1405    0.5856   -5.2102 O   0  5  0  0  0  0  0  0  0  0  0  0
    2.8381    0.4997    0.4925 O   0  0  0  0  0  0  0  0  0  0  0  0
   -3.3421    0.6511   -4.7132 O   0  0  0  0  0  0  0  0  0  0  0  0
   -0.8328    2.2326    4.6117 O   0  0  0  0  0  0  0  0  0  0  0  0
   -2.5825    0.8600    3.6827 O   0  0  0  0  0  0  0  0  0  0  0  0
    2.8127    3.1456   -5.8680 O   0  0  0  0  0  0  0  0  0  0  0  0
   -2.3637    3.6663   -5.9320 O   0  0  0  0  0  0  0  0  0  0  0  0
   -1.4169    5.7458   -2.0226 H   0  0  0  0  0  0  0  0  0  0  0  0
   -1.2148    3.5947   -0.8208 H   0  0  0  0  0  0  0  0  0  0  0  0
    4.9329    1.6352   -2.1573 H   0  0  0  0  0  0  0  0  0  0  0  0
    1.8878    4.6466   -1.6917 H   0  0  0  0  0  0  0  0  0  0  0  0
   -1.9591    5.7784   -4.4368 H   0  0  0  0  0  0  0  0  0  0  0  0
    4.5617    1.6389   -4.5970 H   0  0  0  0  0  0  0  0  0  0  0  0
    1.5191    4.6481   -4.1314 H   0  0  0  0  0  0  0  0  0  0  0  0
    1.4825    2.5259    3.1751 H   0  0  0  0  0  0  0  0  0  0  0  0
   -2.1444   -0.3218    1.2477 H   0  0  0  0  0  0  0  0  0  0  0  0
   -2.1790    1.0952    5.7016 H   0  0  0  0  0  0  0  0  0  0  0  0
   -2.8660    2.5226    4.8865 H   0  0  0  0  0  0  0  0  0  0  0  0
    0.1334   -0.7074   -3.0401 H   0  0  0  0  0  0  0  0  0  0  0  0
    0.5225    0.9827   -3.5222 H   0  0  0  0  0  0  0  0  0  0  0  0
    1.6639    0.0578   -2.4818 H   0  0  0  0  0  0  0  0  0  0  0  0
    1.7570    3.9357   -7.4595 H   0  0  0  0  0  0  0  0  0  0  0  0
    2.0742    5.0618   -6.1033 H   0  0  0  0  0  0  0  0  0  0  0  0
    0.8521    3.7745   -5.9317 H   0  0  0  0  0  0  0  0  0  0  0  0
   -2.6996    4.8417   -7.5976 H   0  0  0  0  0  0  0  0  0  0  0  0
   -1.5089    5.4823   -6.4228 H   0  0  0  0  0  0  0  0  0  0  0  0
   -3.2511    5.5212   -6.0441 H   0  0  0  0  0  0  0  0  0  0  0  0
    4.4436    2.4231   -0.0088 H   0  0  0  0  0  0  0  0  0  0  0  0
    3.9871    4.1253    0.0687 H   0  0  0  0  0  0  0  0  0  0  0  0
   -2.0403    1.1544   -0.8516 H   0  0  0  0  0  0  0  0  0  0  0  0
   -1.9451    0.2725   -2.3825 H   0  0  0  0  0  0  0  0  0  0  0  0
    1.0153   -0.6671   -0.4403 H   0  0  0  0  0  0  0  0  0  0  0  0
   -0.7251   -0.9768   -0.5145 H   0  0  0  0  0  0  0  0  0  0  0  0
    1.8153    3.5387    0.6627 H   0  0  0  0  0  0  0  0  0  0  0  0
    0.3875    1.6173   -1.2528 H   0  0  0  0  0  0  0  0  0  0  0  0
  1  2  1  0  0  0  0
  1  5  2  0  0  0  0
  2 13  2  0  0  0  0
  3  6  1  0  0  0  0
  3 12  2  0  0  0  0
  4  7  2  0  0  0  0
  4 12  1  0  0  0  0
  5 18  1  0  0  0  0
  6 17  2  0  0  0  0
  7 17  1  0  0  0  0
  8 10  2  0  0  0  0
  8 15  1  0  0  0  0
  9 14  2  0  0  0  0
  9 16  1  0  0  0  0
 10 14  1  0  0  0  0
 10 19  1  0  0  0  0
 11 13  1  0  0  0  0
 11 18  2  0  0  0  0
 11 20  1  0  0  0  0
 12 25  1  0  0  0  0
 13 26  1  0  0  0  0
 14 27  1  0  0  0  0
 15 16  2  0  0  0  0
 15 33  1  0  0  0  0
 16 34  1  0  0  0  0
 17 35  1  0  0  0  0
 18 36  1  0  0  0  0
 19 28  1  0  0  0  0
 19 31  2  0  0  0  0
 20 30  1  0  0  0  0
 20 32  2  0  0  0  0
 21 33  1  0  0  0  0
 21 34  1  0  0  0  0
 22 29  1  0  0  0  0
 23 35  1  0  0  0  0
 24 36  1  0  0  0  0
 25 28  1  0  0  0  0
 26 29  1  0  0  0  0
 27 29  1  0  0  0  0
  1 37  1  0  0  0  0
  2 38  1  0  0  0  0
  3 39  1  0  0  0  0
  4 40  1  0  0  0  0
  5 41  1  0  0  0  0
  6 42  1  0  0  0  0
  7 43  1  0  0  0  0
  8 44  1  0  0  0  0
  9 45  1  0  0  0  0
 21 46  1  0  0  0  0
 21 47  1  0  0  0  0
 22 48  1  0  0  0  0
 22 49  1  0  0  0  0
 22 50  1  0  0  0  0
 23 51  1  0  0  0  0
 23 52  1  0  0  0  0
 23 53  1  0  0  0  0
 24 54  1  0  0  0  0
 24 55  1  0  0  0  0
 24 56  1  0  0  0  0
 25 57  1  0  0  0  0
 25 58  1  0  0  0  0
 26 59  1  0  0  0  0
 26 60  1  0  0  0  0
 27 61  1  0  0  0  0
 27 62  1  0  0  0  0
 28 63  1  0  0  0  0
 29 64  1  0  0  0  0
M  CHG  2  29   1  30  -1
M  END
$$$$
