AVX17476_0
  -OEChem-04011314533D

 34 36  0     0  0  0  0  0  0999 V2000
   -6.2493   -0.0154   -1.5891 C   0  0  0  0  0  0  0  0  0  0  0  0
   -6.0943   -1.4015   -1.5674 C   0  0  0  0  0  0  0  0  0  0  0  0
   -5.1281    0.8127   -1.5345 C   0  0  0  0  0  0  0  0  0  0  0  0
   -0.7036    1.3640    1.5041 C   0  0  0  0  0  0  0  0  0  0  0  0
   -1.6773    1.6439    2.4698 C   0  0  0  0  0  0  0  0  0  0  0  0
   -4.8182   -1.9594   -1.4910 C   0  0  0  0  0  0  0  0  0  0  0  0
   -3.8520    0.2547   -1.4582 C   0  0  0  0  0  0  0  0  0  0  0  0
   -0.7671    0.1975    0.7446 C   0  0  0  0  0  0  0  0  0  0  0  0
   -4.5471   -0.4724    3.2738 C   0  0  0  0  0  0  0  0  0  0  0  0
   -2.7304    0.7292    2.6692 C   0  0  0  0  0  0  0  0  0  0  0  0
   -3.8586    0.6897    3.5356 C   0  0  0  0  0  0  0  0  0  0  0  0
   -3.6970   -1.1313   -1.4364 C   0  0  0  0  0  0  0  0  0  0  0  0
   -1.8022   -0.7245    0.9247 C   0  0  0  0  0  0  0  0  0  0  0  0
   -2.7685   -0.4315    1.8936 C   0  0  0  0  0  0  0  0  0  0  0  0
   -4.2442    1.7373    4.5702 C   0  0  0  0  0  0  0  0  0  0  0  0
   -2.3159   -1.7344   -1.3536 C   0  0  0  0  0  0  0  0  0  0  0  0
   -1.8391   -1.9637    0.0939 C   0  0  0  0  0  0  0  0  0  0  0  0
   -3.8818   -1.1421    2.2822 N   0  0  0  0  0  0  0  0  0  0  0  0
   -5.2909    1.5143    5.2438 O   0  5  0  0  0  0  0  0  0  0  0  0
   -3.4864    2.7446    4.6707 O   0  0  0  0  0  0  0  0  0  0  0  0
   -7.2429    0.4188   -1.6499 H   0  0  0  0  0  0  0  0  0  0  0  0
   -6.9671   -2.0464   -1.6110 H   0  0  0  0  0  0  0  0  0  0  0  0
   -5.2484    1.8918   -1.5525 H   0  0  0  0  0  0  0  0  0  0  0  0
    0.1113    2.0657    1.3463 H   0  0  0  0  0  0  0  0  0  0  0  0
   -1.6124    2.5578    3.0533 H   0  0  0  0  0  0  0  0  0  0  0  0
   -4.7070   -3.0404   -1.4744 H   0  0  0  0  0  0  0  0  0  0  0  0
   -2.9843    0.9077   -1.4159 H   0  0  0  0  0  0  0  0  0  0  0  0
    0.0045    0.0087    0.0014 H   0  0  0  0  0  0  0  0  0  0  0  0
   -5.4496   -0.8845    3.7035 H   0  0  0  0  0  0  0  0  0  0  0  0
   -2.3258   -2.6904   -1.8933 H   0  0  0  0  0  0  0  0  0  0  0  0
   -1.5994   -1.0995   -1.8904 H   0  0  0  0  0  0  0  0  0  0  0  0
   -0.8280   -2.4038    0.0585 H   0  0  0  0  0  0  0  0  0  0  0  0
   -2.4664   -2.7348    0.5727 H   0  0  0  0  0  0  0  0  0  0  0  0
   -4.1666   -2.0304    1.8935 H   0  0  0  0  0  0  0  0  0  0  0  0
  1  2  2  0  0  0  0
  1  3  1  0  0  0  0
  2  6  1  0  0  0  0
  3  7  2  0  0  0  0
  4  5  1  0  0  0  0
  4  8  2  0  0  0  0
  5 10  2  0  0  0  0
  6 12  2  0  0  0  0
  7 12  1  0  0  0  0
  8 13  1  0  0  0  0
  9 11  2  0  0  0  0
  9 18  1  0  0  0  0
 10 11  1  0  0  0  0
 10 14  1  0  0  0  0
 11 15  1  0  0  0  0
 12 16  1  0  0  0  0
 13 14  2  0  0  0  0
 13 17  1  0  0  0  0
 14 18  1  0  0  0  0
 15 19  1  0  0  0  0
 15 20  2  0  0  0  0
 16 17  1  0  0  0  0
  1 21  1  0  0  0  0
  2 22  1  0  0  0  0
  3 23  1  0  0  0  0
  4 24  1  0  0  0  0
  5 25  1  0  0  0  0
  6 26  1  0  0  0  0
  7 27  1  0  0  0  0
  8 28  1  0  0  0  0
  9 29  1  0  0  0  0
 16 30  1  0  0  0  0
 16 31  1  0  0  0  0
 17 32  1  0  0  0  0
 17 33  1  0  0  0  0
 18 34  1  0  0  0  0
M  CHG  1  19  -1
M  END
$$$$
