AVX101124_2
  -OEChem-04011314513D

 57 60  0     1  0  0  0  0  0999 V2000
   -2.5732   -3.1272    1.4546 C   0  0  0  0  0  0  0  0  0  0  0  0
   -2.3121   -3.2659    0.0841 C   0  0  0  0  0  0  0  0  0  0  0  0
   -1.9935   -2.0891    2.1885 C   0  0  0  0  0  0  0  0  0  0  0  0
   -0.2722    2.6638    3.9575 C   0  0  0  0  0  0  0  0  0  0  0  0
   -1.4673   -2.3684   -0.5703 C   0  0  0  0  0  0  0  0  0  0  0  0
    0.3765    3.8225    4.3912 C   0  0  0  0  0  0  0  0  0  0  0  0
   -1.1565   -1.1976    1.5316 C   0  0  0  0  0  0  0  0  0  0  0  0
    0.4481    1.4732    3.7557 C   0  0  0  0  0  0  0  0  0  0  0  0
    1.8254    1.4278    3.9850 C   0  0  0  0  0  0  0  0  0  0  0  0
   -0.9019   -1.3354    0.1633 C   0  0  0  0  0  0  0  0  0  0  0  0
    1.7368    3.7509    4.6104 C   0  0  0  0  0  0  0  0  0  0  0  0
    2.4419    2.5856    4.4129 C   0  0  0  0  0  0  0  0  0  0  0  0
   -0.4350   -0.0272    2.0283 C   0  0  0  0  0  0  0  0  0  0  0  0
   -0.2677    0.3151    3.3105 C   0  0  0  0  0  0  0  0  0  0  0  0
    2.6112    0.1970    3.7870 C   0  0  0  0  0  0  0  0  0  0  0  0
   -0.1484    3.0163   -0.0258 C   0  0  0  0  0  0  0  0  0  0  0  0
    0.0640   -0.3036   -0.3389 C   0  0  0  0  0  0  0  0  0  0  0  0
    3.8175    4.1178    5.0777 C   0  0  0  0  0  0  0  0  0  0  0  0
    0.1425    0.6943    0.8317 C   0  0  1  0  0  0  0  0  0  0  0  0
   -1.2065    4.1015   -0.1403 C   0  0  0  0  0  0  0  0  0  0  0  0
   -0.6416    5.5204   -0.0889 C   0  0  0  0  0  0  0  0  0  0  0  0
    0.0966    5.8075    1.2233 C   0  0  0  0  0  0  0  0  0  0  0  0
    0.6286    7.2437    1.2541 C   0  0  0  0  0  0  0  0  0  0  0  0
    1.3643    7.5905    2.5426 C   0  0  0  0  0  0  0  0  0  0  0  0
   -0.6538    1.8731    0.5762 N   0  0  0  0  0  0  0  0  0  0  0  0
    1.8431    8.9924    2.5115 N   0  3  0  0  0  0  0  0  0  0  0  0
    2.7526   -0.6121    4.7778 O   0  5  0  0  0  0  0  0  0  0  0  0
    3.1293   -0.0260    2.6301 O   0  0  0  0  0  0  0  0  0  0  0  0
    1.0099    3.1633   -0.4062 O   0  0  0  0  0  0  0  0  0  0  0  0
    2.5324    4.7711    5.0324 O   0  0  0  0  0  0  0  0  0  0  0  0
    3.7671    2.7305    4.6862 O   0  0  0  0  0  0  0  0  0  0  0  0
   -3.2329   -3.8346    1.9497 H   0  0  0  0  0  0  0  0  0  0  0  0
   -2.7680   -4.0814   -0.4708 H   0  0  0  0  0  0  0  0  0  0  0  0
   -2.2084   -1.9930    3.2477 H   0  0  0  0  0  0  0  0  0  0  0  0
   -1.3450    2.6985    3.7797 H   0  0  0  0  0  0  0  0  0  0  0  0
   -1.2577   -2.4834   -1.6285 H   0  0  0  0  0  0  0  0  0  0  0  0
   -0.1758    4.7422    4.5475 H   0  0  0  0  0  0  0  0  0  0  0  0
   -0.6835   -0.3498    4.0655 H   0  0  0  0  0  0  0  0  0  0  0  0
    1.0377   -0.7787   -0.5045 H   0  0  0  0  0  0  0  0  0  0  0  0
   -0.2805    0.1585   -1.2697 H   0  0  0  0  0  0  0  0  0  0  0  0
    4.5043    4.6474    4.4075 H   0  0  0  0  0  0  0  0  0  0  0  0
    4.2059    4.1796    6.1007 H   0  0  0  0  0  0  0  0  0  0  0  0
    1.1734    1.0262    0.9940 H   0  0  0  0  0  0  0  0  0  0  0  0
   -1.7792    3.9545   -1.0634 H   0  0  0  0  0  0  0  0  0  0  0  0
   -1.8963    3.9643    0.7015 H   0  0  0  0  0  0  0  0  0  0  0  0
    0.0595    5.6441   -0.9234 H   0  0  0  0  0  0  0  0  0  0  0  0
   -1.4430    6.2546   -0.2344 H   0  0  0  0  0  0  0  0  0  0  0  0
    0.9322    5.1056    1.3331 H   0  0  0  0  0  0  0  0  0  0  0  0
   -0.5782    5.6413    2.0693 H   0  0  0  0  0  0  0  0  0  0  0  0
    1.3235    7.3847    0.4171 H   0  0  0  0  0  0  0  0  0  0  0  0
   -0.1993    7.9464    1.0983 H   0  0  0  0  0  0  0  0  0  0  0  0
    0.7244    7.4884    3.4239 H   0  0  0  0  0  0  0  0  0  0  0  0
    2.2513    6.9618    2.6647 H   0  0  0  0  0  0  0  0  0  0  0  0
   -1.6317    1.8640    0.8508 H   0  0  0  0  0  0  0  0  0  0  0  0
    1.3958    9.5180    1.7521 H   0  0  0  0  0  0  0  0  0  0  0  0
    2.8583    9.0315    2.3658 H   0  0  0  0  0  0  0  0  0  0  0  0
    1.6330    9.4734    3.3935 H   0  0  0  0  0  0  0  0  0  0  0  0
  1  2  1  0  0  0  0
  1  3  2  0  0  0  0
  2  5  2  0  0  0  0
  3  7  1  0  0  0  0
  4  6  2  0  0  0  0
  4  8  1  0  0  0  0
  5 10  1  0  0  0  0
  6 11  1  0  0  0  0
  7 10  2  0  0  0  0
  7 13  1  0  0  0  0
  8  9  2  0  0  0  0
  8 14  1  0  0  0  0
  9 12  1  0  0  0  0
  9 15  1  0  0  0  0
 10 17  1  0  0  0  0
 11 12  2  0  0  0  0
 11 30  1  0  0  0  0
 12 31  1  0  0  0  0
 13 14  2  0  0  0  0
 13 19  1  0  0  0  0
 15 27  1  0  0  0  0
 15 28  2  0  0  0  0
 16 20  1  0  0  0  0
 16 25  1  0  0  0  0
 16 29  2  0  0  0  0
 17 19  1  0  0  0  0
 18 30  1  0  0  0  0
 18 31  1  0  0  0  0
 19 25  1  0  0  0  0
 20 21  1  0  0  0  0
 21 22  1  0  0  0  0
 22 23  1  0  0  0  0
 23 24  1  0  0  0  0
 24 26  1  0  0  0  0
  1 32  1  0  0  0  0
  2 33  1  0  0  0  0
  3 34  1  0  0  0  0
  4 35  1  0  0  0  0
  5 36  1  0  0  0  0
  6 37  1  0  0  0  0
 14 38  1  0  0  0  0
 17 39  1  0  0  0  0
 17 40  1  0  0  0  0
 18 41  1  0  0  0  0
 18 42  1  0  0  0  0
 19 43  1  0  0  0  0
 20 44  1  0  0  0  0
 20 45  1  0  0  0  0
 21 46  1  0  0  0  0
 21 47  1  0  0  0  0
 22 48  1  0  0  0  0
 22 49  1  0  0  0  0
 23 50  1  0  0  0  0
 23 51  1  0  0  0  0
 24 52  1  0  0  0  0
 24 53  1  0  0  0  0
 25 54  1  0  0  0  0
 26 55  1  0  0  0  0
 26 56  1  0  0  0  0
 26 57  1  0  0  0  0
M  CHG  2  26   1  27  -1
M  END
$$$$
