AVX17257_0
  -OEChem-04011314523D

 32 34  0     0  0  0  0  0  0999 V2000
   -2.1742    5.0291    1.4506 C   0  0  0  0  0  0  0  0  0  0  0  0
    5.4219    5.1226   -2.0884 C   0  0  0  0  0  0  0  0  0  0  0  0
   -0.8771    5.5417    1.4313 C   0  0  0  0  0  0  0  0  0  0  0  0
    4.4712    6.1126   -2.3929 C   0  0  0  0  0  0  0  0  0  0  0  0
   -2.7000    4.4189    0.3117 C   0  0  0  0  0  0  0  0  0  0  0  0
    5.0209    3.8334   -1.7289 C   0  0  0  0  0  0  0  0  0  0  0  0
   -0.1058    5.4442    0.2732 C   0  0  0  0  0  0  0  0  0  0  0  0
    3.1040    5.8300   -2.3433 C   0  0  0  0  0  0  0  0  0  0  0  0
   -1.9287    4.3214   -0.8464 C   0  0  0  0  0  0  0  0  0  0  0  0
    3.6657    3.5634   -1.6823 C   0  0  0  0  0  0  0  0  0  0  0  0
   -0.6316    4.8341   -0.8656 C   0  0  0  0  0  0  0  0  0  0  0  0
    2.7261    4.5481   -1.9852 C   0  0  0  0  0  0  0  0  0  0  0  0
    1.4901    2.6615   -1.4746 C   0  0  0  0  0  0  0  0  0  0  0  0
   -2.5044    3.6732   -2.0387 C   0  0  0  0  0  0  0  0  0  0  0  0
    2.9684    2.2880   -1.3335 C   0  0  0  0  0  0  0  0  0  0  0  0
    0.2198    4.7433   -2.0990 C   0  0  0  0  0  0  0  0  0  0  0  0
    1.4392    4.0084   -1.8607 N   0  0  0  0  0  0  0  0  0  0  0  0
   -3.1449    4.3983   -2.8870 O   0  5  0  0  0  0  0  0  0  0  0  0
    0.5588    1.8949   -1.2778 O   0  0  0  0  0  0  0  0  0  0  0  0
   -2.3464    2.4050   -2.1889 O   0  0  0  0  0  0  0  0  0  0  0  0
   -2.7742    5.1048    2.3525 H   0  0  0  0  0  0  0  0  0  0  0  0
    6.4803    5.3647   -2.1341 H   0  0  0  0  0  0  0  0  0  0  0  0
   -0.4677    6.0168    2.3179 H   0  0  0  0  0  0  0  0  0  0  0  0
    4.8064    7.1086   -2.6699 H   0  0  0  0  0  0  0  0  0  0  0  0
   -3.7115    4.0217    0.3384 H   0  0  0  0  0  0  0  0  0  0  0  0
    5.7554    3.0711   -1.4939 H   0  0  0  0  0  0  0  0  0  0  0  0
    0.9029    5.8488    0.2674 H   0  0  0  0  0  0  0  0  0  0  0  0
    2.3778    6.5992   -2.5802 H   0  0  0  0  0  0  0  0  0  0  0  0
    3.2132    1.4915   -2.0408 H   0  0  0  0  0  0  0  0  0  0  0  0
    3.1725    1.9906   -0.3016 H   0  0  0  0  0  0  0  0  0  0  0  0
   -0.3237    4.2419   -2.9072 H   0  0  0  0  0  0  0  0  0  0  0  0
    0.4946    5.7396   -2.4610 H   0  0  0  0  0  0  0  0  0  0  0  0
  1  3  1  0  0  0  0
  1  5  2  0  0  0  0
  2  4  1  0  0  0  0
  2  6  2  0  0  0  0
  3  7  2  0  0  0  0
  4  8  2  0  0  0  0
  5  9  1  0  0  0  0
  6 10  1  0  0  0  0
  7 11  1  0  0  0  0
  8 12  1  0  0  0  0
  9 11  2  0  0  0  0
  9 14  1  0  0  0  0
 10 12  2  0  0  0  0
 10 15  1  0  0  0  0
 11 16  1  0  0  0  0
 12 17  1  0  0  0  0
 13 15  1  0  0  0  0
 13 17  1  0  0  0  0
 13 19  2  0  0  0  0
 14 18  1  0  0  0  0
 14 20  2  0  0  0  0
 16 17  1  0  0  0  0
  1 21  1  0  0  0  0
  2 22  1  0  0  0  0
  3 23  1  0  0  0  0
  4 24  1  0  0  0  0
  5 25  1  0  0  0  0
  6 26  1  0  0  0  0
  7 27  1  0  0  0  0
  8 28  1  0  0  0  0
 15 29  1  0  0  0  0
 15 30  1  0  0  0  0
 16 31  1  0  0  0  0
 16 32  1  0  0  0  0
M  CHG  1  18  -1
M  END
$$$$
