AVX17558_2
  -OEChem-04011314543D

 53 56  0     1  0  0  0  0  0999 V2000
   -2.0130    1.1304   -1.6264 C   0  0  0  0  0  0  0  0  0  0  0  0
   -1.6942    2.0339   -0.6017 C   0  0  0  0  0  0  0  0  0  0  0  0
   -1.3986   -0.1214   -1.6859 C   0  0  0  0  0  0  0  0  0  0  0  0
   -0.7561    1.6986    0.3777 C   0  0  0  0  0  0  0  0  0  0  0  0
    2.4932   -0.4707    3.8094 C   0  0  0  0  0  0  0  0  0  0  0  0
    3.3824   -1.1217    4.6679 C   0  0  0  0  0  0  0  0  0  0  0  0
    4.3021    0.0595    2.2684 C   0  0  0  0  0  0  0  0  0  0  0  0
   -0.4605   -0.4407   -0.7175 C   0  0  0  0  0  0  0  0  0  0  0  0
   -0.1380    0.4594    0.3068 C   0  0  0  0  0  0  0  0  0  0  0  0
    2.9503    0.1164    2.6165 C   0  0  0  0  0  0  0  0  0  0  0  0
    4.7118   -1.1637    4.3010 C   0  0  0  0  0  0  0  0  0  0  0  0
    5.1593   -0.5891    3.1333 C   0  0  0  0  0  0  0  0  0  0  0  0
    4.8055    0.6652    1.0252 C   0  0  0  0  0  0  0  0  0  0  0  0
    2.9486   -3.2318    0.7324 C   0  0  0  0  0  0  0  0  0  0  0  0
    0.2911   -1.7253   -0.5655 C   0  0  0  0  0  0  0  0  0  0  0  0
    6.8471   -1.4806    4.1523 C   0  0  0  0  0  0  0  0  0  0  0  0
    0.8646   -0.1477    1.2506 C   0  0  1  0  0  0  0  0  0  0  0  0
    1.4297   -1.2961    0.3775 C   0  0  1  0  0  0  0  0  0  0  0  0
    1.9534    0.8064    1.7243 C   0  0  0  0  0  0  0  0  0  0  0  0
    3.2619   -4.3097    1.7551 C   0  0  0  0  0  0  0  0  0  0  0  0
    4.3878   -5.2357    1.3017 C   0  0  0  0  0  0  0  0  0  0  0  0
    4.6469   -6.3257    2.3305 C   0  0  0  0  0  0  0  0  0  0  0  0
    1.9216   -2.3975    1.1602 N   0  0  0  0  0  0  0  0  0  0  0  0
    5.7752   -7.1703    1.8699 N   0  3  0  0  0  0  0  0  0  0  0  0
    4.8363   -0.0508   -0.0450 O   0  5  0  0  0  0  0  0  0  0  0  0
    5.1992    1.8913    1.0481 O   0  0  0  0  0  0  0  0  0  0  0  0
    3.5407   -3.1273   -0.3384 O   0  0  0  0  0  0  0  0  0  0  0  0
    5.7166   -1.7508    5.0063 O   0  0  0  0  0  0  0  0  0  0  0  0
    6.5003   -0.7441    2.9616 O   0  0  0  0  0  0  0  0  0  0  0  0
   -2.7498    1.4064   -2.3760 H   0  0  0  0  0  0  0  0  0  0  0  0
   -2.1879    3.0013   -0.5663 H   0  0  0  0  0  0  0  0  0  0  0  0
   -1.6542   -0.8234   -2.4723 H   0  0  0  0  0  0  0  0  0  0  0  0
   -0.5282    2.3982    1.1746 H   0  0  0  0  0  0  0  0  0  0  0  0
    1.4392   -0.4224    4.0729 H   0  0  0  0  0  0  0  0  0  0  0  0
    3.0340   -1.5757    5.5886 H   0  0  0  0  0  0  0  0  0  0  0  0
   -0.3540   -2.4884   -0.1161 H   0  0  0  0  0  0  0  0  0  0  0  0
    0.6841   -2.0923   -1.5187 H   0  0  0  0  0  0  0  0  0  0  0  0
    7.5853   -0.9024    4.7199 H   0  0  0  0  0  0  0  0  0  0  0  0
    7.2989   -2.4342    3.8560 H   0  0  0  0  0  0  0  0  0  0  0  0
    0.3271   -0.5529    2.1183 H   0  0  0  0  0  0  0  0  0  0  0  0
    2.2751   -0.9348   -0.2249 H   0  0  0  0  0  0  0  0  0  0  0  0
    1.4981    1.6483    2.2583 H   0  0  0  0  0  0  0  0  0  0  0  0
    2.4673    1.2377    0.8577 H   0  0  0  0  0  0  0  0  0  0  0  0
    2.3483   -4.8904    1.9311 H   0  0  0  0  0  0  0  0  0  0  0  0
    3.5368   -3.8191    2.6965 H   0  0  0  0  0  0  0  0  0  0  0  0
    5.3025   -4.6516    1.1378 H   0  0  0  0  0  0  0  0  0  0  0  0
    4.1275   -5.6873    0.3358 H   0  0  0  0  0  0  0  0  0  0  0  0
    4.9357   -5.9125    3.3014 H   0  0  0  0  0  0  0  0  0  0  0  0
    3.7846   -6.9874    2.4532 H   0  0  0  0  0  0  0  0  0  0  0  0
    1.4698   -2.5919    2.0521 H   0  0  0  0  0  0  0  0  0  0  0  0
    6.3944   -7.4144    2.6504 H   0  0  0  0  0  0  0  0  0  0  0  0
    6.3359   -6.6807    1.1637 H   0  0  0  0  0  0  0  0  0  0  0  0
    5.4344   -8.0434    1.4525 H   0  0  0  0  0  0  0  0  0  0  0  0
  1  2  1  0  0  0  0
  1  3  2  0  0  0  0
  2  4  2  0  0  0  0
  3  8  1  0  0  0  0
  4  9  1  0  0  0  0
  5  6  2  0  0  0  0
  5 10  1  0  0  0  0
  6 11  1  0  0  0  0
  7 10  2  0  0  0  0
  7 12  1  0  0  0  0
  7 13  1  0  0  0  0
  8  9  2  0  0  0  0
  8 15  1  0  0  0  0
  9 17  1  0  0  0  0
 10 19  1  0  0  0  0
 11 12  2  0  0  0  0
 11 28  1  0  0  0  0
 12 29  1  0  0  0  0
 13 25  1  0  0  0  0
 13 26  2  0  0  0  0
 14 20  1  0  0  0  0
 14 23  1  0  0  0  0
 14 27  2  0  0  0  0
 15 18  1  0  0  0  0
 16 28  1  0  0  0  0
 16 29  1  0  0  0  0
 17 18  1  0  0  0  0
 17 19  1  0  0  0  0
 18 23  1  0  0  0  0
 20 21  1  0  0  0  0
 21 22  1  0  0  0  0
 22 24  1  0  0  0  0
  1 30  1  0  0  0  0
  2 31  1  0  0  0  0
  3 32  1  0  0  0  0
  4 33  1  0  0  0  0
  5 34  1  0  0  0  0
  6 35  1  0  0  0  0
 15 36  1  0  0  0  0
 15 37  1  0  0  0  0
 16 38  1  0  0  0  0
 16 39  1  0  0  0  0
 17 40  1  0  0  0  0
 18 41  1  0  0  0  0
 19 42  1  0  0  0  0
 19 43  1  0  0  0  0
 20 44  1  0  0  0  0
 20 45  1  0  0  0  0
 21 46  1  0  0  0  0
 21 47  1  0  0  0  0
 22 48  1  0  0  0  0
 22 49  1  0  0  0  0
 23 50  1  0  0  0  0
 24 51  1  0  0  0  0
 24 52  1  0  0  0  0
 24 53  1  0  0  0  0
M  CHG  2  24   1  25  -1
M  END
$$$$
