AVX17375_3
  -OEChem-04011314533D

 38 41  0     1  0  0  0  0  0999 V2000
    2.6250   -0.3239    0.6896 C   0  0  0  0  0  0  0  0  0  0  0  0
    1.9389   -1.5361    0.8582 C   0  0  0  0  0  0  0  0  0  0  0  0
    1.9344    0.8425    0.3570 C   0  0  0  0  0  0  0  0  0  0  0  0
    0.5528   -1.5992    0.6959 C   0  0  0  0  0  0  0  0  0  0  0  0
   -4.6173   -0.5994   -1.2023 C   0  0  0  0  0  0  0  0  0  0  0  0
   -6.0008   -0.5353   -1.0199 C   0  0  0  0  0  0  0  0  0  0  0  0
   -4.3800   -2.0110    0.7673 C   0  0  0  0  0  0  0  0  0  0  0  0
    0.5615    0.7680    0.1856 C   0  0  0  0  0  0  0  0  0  0  0  0
   -0.1274   -0.4411    0.3516 C   0  0  0  0  0  0  0  0  0  0  0  0
   -3.8115   -1.3331   -0.3139 C   0  0  0  0  0  0  0  0  0  0  0  0
   -6.5370   -1.2135    0.0554 C   0  0  0  0  0  0  0  0  0  0  0  0
   -5.7483   -1.9317    0.9249 C   0  0  0  0  0  0  0  0  0  0  0  0
   -3.5587   -2.7865    1.7107 C   0  0  0  0  0  0  0  0  0  0  0  0
   -0.3792    1.8896   -0.1389 C   0  0  0  0  0  0  0  0  0  0  0  0
   -7.8078   -2.0965    1.5677 C   0  0  0  0  0  0  0  0  0  0  0  0
   -1.6076   -0.2363    0.1627 C   0  0  1  0  0  0  0  0  0  0  0  0
   -1.6244    1.1117   -0.5996 C   0  0  2  0  0  0  0  0  0  0  0  0
   -2.3252   -1.3721   -0.5528 C   0  0  0  0  0  0  0  0  0  0  0  0
   -3.3415   -4.0320    1.4647 O   0  5  0  0  0  0  0  0  0  0  0  0
   -3.0844   -2.1945    2.7515 O   0  0  0  0  0  0  0  0  0  0  0  0
   -7.8551   -1.2656    0.3897 O   0  0  0  0  0  0  0  0  0  0  0  0
   -6.4739   -2.5231    1.9127 O   0  0  0  0  0  0  0  0  0  0  0  0
   -1.5488    0.8969   -2.0093 O   0  0  0  0  0  0  0  0  0  0  0  0
    3.7026   -0.2933    0.8258 H   0  0  0  0  0  0  0  0  0  0  0  0
    2.4917   -2.4329    1.1245 H   0  0  0  0  0  0  0  0  0  0  0  0
    2.4647    1.7812    0.2371 H   0  0  0  0  0  0  0  0  0  0  0  0
    0.0305   -2.5385    0.8442 H   0  0  0  0  0  0  0  0  0  0  0  0
   -4.1670   -0.0749   -2.0418 H   0  0  0  0  0  0  0  0  0  0  0  0
   -6.6257    0.0292   -1.7026 H   0  0  0  0  0  0  0  0  0  0  0  0
   -0.5847    2.4633    0.7706 H   0  0  0  0  0  0  0  0  0  0  0  0
    0.0224    2.5380   -0.9232 H   0  0  0  0  0  0  0  0  0  0  0  0
   -8.2252   -1.5339    2.4108 H   0  0  0  0  0  0  0  0  0  0  0  0
   -8.4269   -2.9845    1.3960 H   0  0  0  0  0  0  0  0  0  0  0  0
   -2.0500   -0.0890    1.1544 H   0  0  0  0  0  0  0  0  0  0  0  0
   -2.5434    1.6751   -0.4066 H   0  0  0  0  0  0  0  0  0  0  0  0
   -1.9215   -2.3343   -0.2161 H   0  0  0  0  0  0  0  0  0  0  0  0
   -2.1220   -1.3178   -1.6289 H   0  0  0  0  0  0  0  0  0  0  0  0
   -1.5145    1.7746   -2.4186 H   0  0  0  0  0  0  0  0  0  0  0  0
  1  2  1  0  0  0  0
  1  3  2  0  0  0  0
  2  4  2  0  0  0  0
  3  8  1  0  0  0  0
  4  9  1  0  0  0  0
  5  6  2  0  0  0  0
  5 10  1  0  0  0  0
  6 11  1  0  0  0  0
  7 10  2  0  0  0  0
  7 12  1  0  0  0  0
  7 13  1  0  0  0  0
  8  9  2  0  0  0  0
  8 14  1  0  0  0  0
  9 16  1  0  0  0  0
 10 18  1  0  0  0  0
 11 12  2  0  0  0  0
 11 21  1  0  0  0  0
 12 22  1  0  0  0  0
 13 19  1  0  0  0  0
 13 20  2  0  0  0  0
 14 17  1  0  0  0  0
 15 21  1  0  0  0  0
 15 22  1  0  0  0  0
 16 17  1  0  0  0  0
 16 18  1  0  0  0  0
 17 23  1  0  0  0  0
  1 24  1  0  0  0  0
  2 25  1  0  0  0  0
  3 26  1  0  0  0  0
  4 27  1  0  0  0  0
  5 28  1  0  0  0  0
  6 29  1  0  0  0  0
 14 30  1  0  0  0  0
 14 31  1  0  0  0  0
 15 32  1  0  0  0  0
 15 33  1  0  0  0  0
 16 34  1  0  0  0  0
 17 35  1  0  0  0  0
 18 36  1  0  0  0  0
 18 37  1  0  0  0  0
 23 38  1  0  0  0  0
M  CHG  1  19  -1
M  END
$$$$
