AVX101121_1
  -OEChem-04011314513D

 67 70  0     1  0  0  0  0  0999 V2000
    3.2867    1.5348    2.8516 C   0  0  0  0  0  0  0  0  0  0  0  0
    4.0874    0.8427    3.7553 C   0  0  0  0  0  0  0  0  0  0  0  0
    9.1199   -4.2563   -4.2474 C   0  0  0  0  0  0  0  0  0  0  0  0
    3.3349    1.2212    1.4930 C   0  0  0  0  0  0  0  0  0  0  0  0
    4.9393   -0.1658    3.3039 C   0  0  0  0  0  0  0  0  0  0  0  0
    8.7289   -4.4852   -2.9282 C   0  0  0  0  0  0  0  0  0  0  0  0
    4.3335   -0.4889   -6.0610 C   0  0  0  0  0  0  0  0  0  0  0  0
    5.4331    1.4051   -5.0408 C   0  0  0  0  0  0  0  0  0  0  0  0
    8.2349   -4.5198   -5.2929 C   0  0  0  0  0  0  0  0  0  0  0  0
    3.5050    0.3767   -6.7750 C   0  0  0  0  0  0  0  0  0  0  0  0
    4.6046    2.2707   -5.7548 C   0  0  0  0  0  0  0  0  0  0  0  0
    4.2477   -0.1198   -0.3430 C   0  0  0  0  0  0  0  0  0  0  0  0
    5.8523   -1.5068    1.4679 C   0  0  0  0  0  0  0  0  0  0  0  0
    4.1864    0.2091    1.0210 C   0  0  0  0  0  0  0  0  0  0  0  0
    5.0007   -0.4947    1.9400 C   0  0  0  0  0  0  0  0  0  0  0  0
    5.0997   -1.1282   -0.7944 C   0  0  0  0  0  0  0  0  0  0  0  0
    6.5679   -5.2414   -3.6999 C   0  0  0  0  0  0  0  0  0  0  0  0
    5.2976    0.0253   -5.1938 C   0  0  0  0  0  0  0  0  0  0  0  0
    7.4530   -4.9778   -2.6544 C   0  0  0  0  0  0  0  0  0  0  0  0
    5.9004   -1.8203    0.1093 C   0  0  0  0  0  0  0  0  0  0  0  0
    3.6405    1.7565   -6.6219 C   0  0  0  0  0  0  0  0  0  0  0  0
    6.9589   -5.0125   -5.0191 C   0  0  0  0  0  0  0  0  0  0  0  0
    5.1318   -1.4362   -2.2180 C   0  0  0  0  0  0  0  0  0  0  0  0
    5.2175   -5.7662   -3.4156 C   0  0  0  0  0  0  0  0  0  0  0  0
    5.2926   -4.7019    0.4537 C   0  0  0  0  0  0  0  0  0  0  0  0
    3.0251    4.0000   -7.1158 C   0  0  0  0  0  0  0  0  0  0  0  0
    6.5973   -5.0007   -7.3696 C   0  0  0  0  0  0  0  0  0  0  0  0
    6.1899   -0.9063   -4.4256 C   0  0  0  0  0  0  0  0  0  0  0  0
    7.0606   -5.2154   -1.2259 C   0  0  0  0  0  0  0  0  0  0  0  0
    6.8212   -2.9046   -0.3482 C   0  0  0  0  0  0  0  0  0  0  0  0
    6.0539   -0.7306   -2.9976 N   0  0  0  0  0  0  0  0  0  0  0  0
    6.1161   -4.1692   -0.6910 N   0  3  2  0  0  0  0  0  0  0  0  0
    5.0503   -7.0400   -3.3662 O   0  5  0  0  0  0  0  0  0  0  0  0
    4.3515   -2.2760   -2.6974 O   0  0  0  0  0  0  0  0  0  0  0  0
    4.2593   -4.9297   -3.2283 O   0  0  0  0  0  0  0  0  0  0  0  0
    2.8328    2.6010   -7.3197 O   0  0  0  0  0  0  0  0  0  0  0  0
    6.1107   -5.2652   -6.0556 O   0  0  0  0  0  0  0  0  0  0  0  0
    2.6232    2.3194    3.2034 H   0  0  0  0  0  0  0  0  0  0  0  0
    4.0487    1.0866    4.8129 H   0  0  0  0  0  0  0  0  0  0  0  0
   10.1129   -3.8717   -4.4603 H   0  0  0  0  0  0  0  0  0  0  0  0
    2.6999    1.7754    0.8047 H   0  0  0  0  0  0  0  0  0  0  0  0
    5.5561   -0.6934    4.0284 H   0  0  0  0  0  0  0  0  0  0  0  0
    9.4253   -4.2769   -2.1203 H   0  0  0  0  0  0  0  0  0  0  0  0
    4.2209   -1.5624   -6.1863 H   0  0  0  0  0  0  0  0  0  0  0  0
    6.1815    1.8147   -4.3672 H   0  0  0  0  0  0  0  0  0  0  0  0
    8.5468   -4.3394   -6.3183 H   0  0  0  0  0  0  0  0  0  0  0  0
    2.7560   -0.0299   -7.4493 H   0  0  0  0  0  0  0  0  0  0  0  0
    4.7153    3.3444   -5.6315 H   0  0  0  0  0  0  0  0  0  0  0  0
    3.6248    0.4157   -1.0580 H   0  0  0  0  0  0  0  0  0  0  0  0
    6.4834   -2.0555    2.1652 H   0  0  0  0  0  0  0  0  0  0  0  0
    5.9727   -4.9311    1.2761 H   0  0  0  0  0  0  0  0  0  0  0  0
    4.5777   -3.9279    0.7396 H   0  0  0  0  0  0  0  0  0  0  0  0
    4.7798   -5.6009    0.1064 H   0  0  0  0  0  0  0  0  0  0  0  0
    2.3170    4.5596   -7.7318 H   0  0  0  0  0  0  0  0  0  0  0  0
    4.0498    4.2706   -7.3827 H   0  0  0  0  0  0  0  0  0  0  0  0
    2.8515    4.2328   -6.0625 H   0  0  0  0  0  0  0  0  0  0  0  0
    5.8234   -5.2446   -8.1015 H   0  0  0  0  0  0  0  0  0  0  0  0
    7.4918   -5.6006   -7.5555 H   0  0  0  0  0  0  0  0  0  0  0  0
    6.8492   -3.9405   -7.4487 H   0  0  0  0  0  0  0  0  0  0  0  0
    5.9531   -1.9496   -4.6612 H   0  0  0  0  0  0  0  0  0  0  0  0
    7.2418   -0.7452   -4.6841 H   0  0  0  0  0  0  0  0  0  0  0  0
    6.5585   -6.1817   -1.1087 H   0  0  0  0  0  0  0  0  0  0  0  0
    7.9373   -5.2130   -0.5693 H   0  0  0  0  0  0  0  0  0  0  0  0
    7.3780   -2.6070   -1.2459 H   0  0  0  0  0  0  0  0  0  0  0  0
    7.5568   -3.1597    0.4254 H   0  0  0  0  0  0  0  0  0  0  0  0
    6.6234   -0.0107   -2.5648 H   0  0  0  0  0  0  0  0  0  0  0  0
    5.4505   -3.9610   -1.4532 H   0  0  0  0  0  0  0  0  0  0  0  0
  1  2  2  0  0  0  0
  1  4  1  0  0  0  0
  2  5  1  0  0  0  0
  3  6  1  0  0  0  0
  3  9  2  0  0  0  0
  4 14  2  0  0  0  0
  5 15  2  0  0  0  0
  6 19  2  0  0  0  0
  7 10  1  0  0  0  0
  7 18  2  0  0  0  0
  8 11  2  0  0  0  0
  8 18  1  0  0  0  0
  9 22  1  0  0  0  0
 10 21  2  0  0  0  0
 11 21  1  0  0  0  0
 12 14  1  0  0  0  0
 12 16  2  0  0  0  0
 13 15  1  0  0  0  0
 13 20  2  0  0  0  0
 14 15  1  0  0  0  0
 16 20  1  0  0  0  0
 16 23  1  0  0  0  0
 17 19  1  0  0  0  0
 17 22  2  0  0  0  0
 17 24  1  0  0  0  0
 18 28  1  0  0  0  0
 19 29  1  0  0  0  0
 20 30  1  0  0  0  0
 21 36  1  0  0  0  0
 22 37  1  0  0  0  0
 23 31  1  0  0  0  0
 23 34  2  0  0  0  0
 24 33  1  0  0  0  0
 24 35  2  0  0  0  0
 25 32  1  0  0  0  0
 26 36  1  0  0  0  0
 27 37  1  0  0  0  0
 28 31  1  0  0  0  0
 29 32  1  0  0  0  0
 30 32  1  0  0  0  0
  1 38  1  0  0  0  0
  2 39  1  0  0  0  0
  3 40  1  0  0  0  0
  4 41  1  0  0  0  0
  5 42  1  0  0  0  0
  6 43  1  0  0  0  0
  7 44  1  0  0  0  0
  8 45  1  0  0  0  0
  9 46  1  0  0  0  0
 10 47  1  0  0  0  0
 11 48  1  0  0  0  0
 12 49  1  0  0  0  0
 13 50  1  0  0  0  0
 25 51  1  0  0  0  0
 25 52  1  0  0  0  0
 25 53  1  0  0  0  0
 26 54  1  0  0  0  0
 26 55  1  0  0  0  0
 26 56  1  0  0  0  0
 27 57  1  0  0  0  0
 27 58  1  0  0  0  0
 27 59  1  0  0  0  0
 28 60  1  0  0  0  0
 28 61  1  0  0  0  0
 29 62  1  0  0  0  0
 29 63  1  0  0  0  0
 30 64  1  0  0  0  0
 30 65  1  0  0  0  0
 31 66  1  0  0  0  0
 32 67  1  0  0  0  0
M  CHG  2  32   1  33  -1
M  END
$$$$
