AVX17267_1
  -OEChem-04011314523D

 39 41  0     1  0  0  0  0  0999 V2000
    3.8860    2.2730   -3.6490 C   0  0  0  0  0  0  0  0  0  0  0  0
    2.7594    9.2322    1.2861 C   0  0  0  0  0  0  0  0  0  0  0  0
    2.7934    3.0067   -4.1112 C   0  0  0  0  0  0  0  0  0  0  0  0
    2.1203   10.2992    0.6283 C   0  0  0  0  0  0  0  0  0  0  0  0
    4.4878    2.6075   -2.4359 C   0  0  0  0  0  0  0  0  0  0  0  0
    3.0953    8.0622    0.5972 C   0  0  0  0  0  0  0  0  0  0  0  0
    2.3027    4.0749   -3.3603 C   0  0  0  0  0  0  0  0  0  0  0  0
    1.8065   10.2154   -0.7292 C   0  0  0  0  0  0  0  0  0  0  0  0
    3.9971    3.6757   -1.6850 C   0  0  0  0  0  0  0  0  0  0  0  0
    2.7778    7.9840   -0.7462 C   0  0  0  0  0  0  0  0  0  0  0  0
    2.9046    4.4094   -2.1472 C   0  0  0  0  0  0  0  0  0  0  0  0
    2.1484    9.0500   -1.3853 C   0  0  0  0  0  0  0  0  0  0  0  0
    2.4104    7.4574   -3.0271 C   0  0  0  0  0  0  0  0  0  0  0  0
    4.6448    4.0039   -0.4222 C   0  0  0  0  0  0  0  0  0  0  0  0
    3.0211    6.8799   -1.7352 C   0  0  2  0  0  0  0  0  0  0  0  0
    5.0446    1.8942    2.5573 C   0  0  0  0  0  0  0  0  0  0  0  0
    2.3543    5.5685   -1.3569 C   0  0  0  0  0  0  0  0  0  0  0  0
    5.1996    3.1562    1.7357 C   0  0  0  0  0  0  0  0  0  0  0  0
    1.9355    8.7379   -2.7231 N   0  0  0  0  0  0  0  0  0  0  0  0
    2.3602    6.8885   -4.1071 O   0  0  0  0  0  0  0  0  0  0  0  0
    5.1727    5.0939   -0.1713 O   0  0  0  0  0  0  0  0  0  0  0  0
    4.5951    2.9551    0.4536 O   0  0  0  0  0  0  0  0  0  0  0  0
    4.2684    1.4409   -4.2333 H   0  0  0  0  0  0  0  0  0  0  0  0
    2.9953    9.3212    2.3433 H   0  0  0  0  0  0  0  0  0  0  0  0
    2.3254    2.7459   -5.0560 H   0  0  0  0  0  0  0  0  0  0  0  0
    1.8703   11.1981    1.1857 H   0  0  0  0  0  0  0  0  0  0  0  0
    5.3393    2.0287   -2.0871 H   0  0  0  0  0  0  0  0  0  0  0  0
    3.5921    7.2450    1.1083 H   0  0  0  0  0  0  0  0  0  0  0  0
    1.4507    4.6397   -3.7293 H   0  0  0  0  0  0  0  0  0  0  0  0
    1.3146   11.0357   -1.2390 H   0  0  0  0  0  0  0  0  0  0  0  0
    4.0976    6.7518   -1.8938 H   0  0  0  0  0  0  0  0  0  0  0  0
    3.9885    1.6512    2.7038 H   0  0  0  0  0  0  0  0  0  0  0  0
    5.5368    1.0496    2.0641 H   0  0  0  0  0  0  0  0  0  0  0  0
    5.5193    2.0111    3.5372 H   0  0  0  0  0  0  0  0  0  0  0  0
    1.2711    5.6418   -1.5171 H   0  0  0  0  0  0  0  0  0  0  0  0
    2.4879    5.3787   -0.2842 H   0  0  0  0  0  0  0  0  0  0  0  0
    6.2580    3.3937    1.5930 H   0  0  0  0  0  0  0  0  0  0  0  0
    4.7066    3.9989    2.2295 H   0  0  0  0  0  0  0  0  0  0  0  0
    1.4850    9.3630   -3.3809 H   0  0  0  0  0  0  0  0  0  0  0  0
  1  3  1  0  0  0  0
  1  5  2  0  0  0  0
  2  4  2  0  0  0  0
  2  6  1  0  0  0  0
  3  7  2  0  0  0  0
  4  8  1  0  0  0  0
  5  9  1  0  0  0  0
  6 10  2  0  0  0  0
  7 11  1  0  0  0  0
  8 12  2  0  0  0  0
  9 11  2  0  0  0  0
  9 14  1  0  0  0  0
 10 12  1  0  0  0  0
 10 15  1  0  0  0  0
 11 17  1  0  0  0  0
 12 19  1  0  0  0  0
 13 15  1  0  0  0  0
 13 19  1  0  0  0  0
 13 20  2  0  0  0  0
 14 21  2  0  0  0  0
 14 22  1  0  0  0  0
 15 17  1  0  0  0  0
 16 18  1  0  0  0  0
 18 22  1  0  0  0  0
  1 23  1  0  0  0  0
  2 24  1  0  0  0  0
  3 25  1  0  0  0  0
  4 26  1  0  0  0  0
  5 27  1  0  0  0  0
  6 28  1  0  0  0  0
  7 29  1  0  0  0  0
  8 30  1  0  0  0  0
 15 31  1  0  0  0  0
 16 32  1  0  0  0  0
 16 33  1  0  0  0  0
 16 34  1  0  0  0  0
 17 35  1  0  0  0  0
 17 36  1  0  0  0  0
 18 37  1  0  0  0  0
 18 38  1  0  0  0  0
 19 39  1  0  0  0  0
M  END
$$$$
