AVX17715_0
  -OEChem-04011314553D

 57 60  0     0  0  0  0  0  0999 V2000
   -0.0052    0.8633   -5.0902 C   0  0  0  0  0  0  0  0  0  0  0  0
   -0.6237    0.8519   -3.8401 C   0  0  0  0  0  0  0  0  0  0  0  0
    1.1773    0.1509   -5.2899 C   0  0  0  0  0  0  0  0  0  0  0  0
   -0.0596    0.1283   -2.7895 C   0  0  0  0  0  0  0  0  0  0  0  0
    3.0559   -5.8516   -1.4483 C   0  0  0  0  0  0  0  0  0  0  0  0
    6.4796   -1.1386   -2.1507 C   0  0  0  0  0  0  0  0  0  0  0  0
    5.9844   -3.2859   -3.1409 C   0  0  0  0  0  0  0  0  0  0  0  0
    2.9429   -7.2333   -1.6199 C   0  0  0  0  0  0  0  0  0  0  0  0
    6.9570   -1.7766   -1.0058 C   0  0  0  0  0  0  0  0  0  0  0  0
    6.4618   -3.9240   -1.9961 C   0  0  0  0  0  0  0  0  0  0  0  0
    1.7414   -0.5727   -4.2393 C   0  0  0  0  0  0  0  0  0  0  0  0
    0.7188   -5.6998   -0.7830 C   0  0  0  0  0  0  0  0  0  0  0  0
    5.9933   -1.8933   -3.2182 C   0  0  0  0  0  0  0  0  0  0  0  0
    1.1230   -0.5841   -2.9891 C   0  0  0  0  0  0  0  0  0  0  0  0
    1.9503   -5.0892   -1.0321 C   0  0  0  0  0  0  0  0  0  0  0  0
    1.7159   -7.8116   -1.3673 C   0  0  0  0  0  0  0  0  0  0  0  0
    0.6337   -7.0655   -0.9599 C   0  0  0  0  0  0  0  0  0  0  0  0
    6.9481   -3.1693   -0.9285 C   0  0  0  0  0  0  0  0  0  0  0  0
    2.9771   -1.3071   -4.4750 C   0  0  0  0  0  0  0  0  0  0  0  0
   -0.4532   -4.9245   -0.3456 C   0  0  0  0  0  0  0  0  0  0  0  0
    0.0280   -9.1382   -1.0970 C   0  0  0  0  0  0  0  0  0  0  0  0
    7.3770   -5.2179    0.2007 C   0  0  0  0  0  0  0  0  0  0  0  0
    5.4800   -1.2067   -4.4508 C   0  0  0  0  0  0  0  0  0  0  0  0
    1.7082   -1.3533   -1.8416 C   0  0  0  0  0  0  0  0  0  0  0  0
    2.1210   -3.6138   -0.8625 C   0  0  0  0  0  0  0  0  0  0  0  0
    4.1745   -0.6232   -4.2410 N   0  0  0  0  0  0  0  0  0  0  0  0
    1.5021   -2.8210   -1.9587 N   0  3  0  0  0  0  0  0  0  0  0  0
   -0.6502   -4.7573    0.9161 O   0  5  0  0  0  0  0  0  0  0  0  0
    2.9435   -2.4797   -4.8850 O   0  0  0  0  0  0  0  0  0  0  0  0
   -1.2438   -4.4388   -1.2389 O   0  0  0  0  0  0  0  0  0  0  0  0
    1.4188   -9.1349   -1.4789 O   0  0  0  0  0  0  0  0  0  0  0  0
   -0.4765   -7.8282   -0.7658 O   0  0  0  0  0  0  0  0  0  0  0  0
    7.4151   -3.7916    0.1882 O   0  0  0  0  0  0  0  0  0  0  0  0
   -0.4443    1.4265   -5.9088 H   0  0  0  0  0  0  0  0  0  0  0  0
   -1.5443    1.4070   -3.6851 H   0  0  0  0  0  0  0  0  0  0  0  0
    1.6501    0.1686   -6.2686 H   0  0  0  0  0  0  0  0  0  0  0  0
   -0.5497    0.1257   -1.8195 H   0  0  0  0  0  0  0  0  0  0  0  0
    4.0113   -5.3686   -1.6397 H   0  0  0  0  0  0  0  0  0  0  0  0
    6.4902   -0.0532   -2.2022 H   0  0  0  0  0  0  0  0  0  0  0  0
    5.6072   -3.8821   -3.9679 H   0  0  0  0  0  0  0  0  0  0  0  0
    3.7929   -7.8248   -1.9405 H   0  0  0  0  0  0  0  0  0  0  0  0
    7.3349   -1.1831   -0.1775 H   0  0  0  0  0  0  0  0  0  0  0  0
    6.4525   -5.0090   -1.9421 H   0  0  0  0  0  0  0  0  0  0  0  0
   -0.5628   -9.5420   -1.9272 H   0  0  0  0  0  0  0  0  0  0  0  0
   -0.0953   -9.7922   -0.2261 H   0  0  0  0  0  0  0  0  0  0  0  0
    7.7782   -5.5856    1.1483 H   0  0  0  0  0  0  0  0  0  0  0  0
    7.9678   -5.6063   -0.6327 H   0  0  0  0  0  0  0  0  0  0  0  0
    6.3405   -5.5467    0.0944 H   0  0  0  0  0  0  0  0  0  0  0  0
    6.1616   -0.4064   -4.7592 H   0  0  0  0  0  0  0  0  0  0  0  0
    5.4025   -1.9083   -5.2880 H   0  0  0  0  0  0  0  0  0  0  0  0
    2.7890   -1.1924   -1.7672 H   0  0  0  0  0  0  0  0  0  0  0  0
    1.2591   -1.0475   -0.8905 H   0  0  0  0  0  0  0  0  0  0  0  0
    1.6646   -3.2617    0.0711 H   0  0  0  0  0  0  0  0  0  0  0  0
    3.1815   -3.3332   -0.8369 H   0  0  0  0  0  0  0  0  0  0  0  0
    4.1441    0.3535   -3.9672 H   0  0  0  0  0  0  0  0  0  0  0  0
    0.4927   -3.0189   -1.9883 H   0  0  0  0  0  0  0  0  0  0  0  0
    1.8777   -3.1436   -2.8608 H   0  0  0  0  0  0  0  0  0  0  0  0
  1  2  2  0  0  0  0
  1  3  1  0  0  0  0
  2  4  1  0  0  0  0
  3 11  2  0  0  0  0
  4 14  2  0  0  0  0
  5  8  1  0  0  0  0
  5 15  2  0  0  0  0
  6  9  1  0  0  0  0
  6 13  2  0  0  0  0
  7 10  2  0  0  0  0
  7 13  1  0  0  0  0
  8 16  2  0  0  0  0
  9 18  2  0  0  0  0
 10 18  1  0  0  0  0
 11 14  1  0  0  0  0
 11 19  1  0  0  0  0
 12 15  1  0  0  0  0
 12 17  2  0  0  0  0
 12 20  1  0  0  0  0
 13 23  1  0  0  0  0
 14 24  1  0  0  0  0
 15 25  1  0  0  0  0
 16 17  1  0  0  0  0
 16 31  1  0  0  0  0
 17 32  1  0  0  0  0
 18 33  1  0  0  0  0
 19 26  1  0  0  0  0
 19 29  2  0  0  0  0
 20 28  1  0  0  0  0
 20 30  2  0  0  0  0
 21 31  1  0  0  0  0
 21 32  1  0  0  0  0
 22 33  1  0  0  0  0
 23 26  1  0  0  0  0
 24 27  1  0  0  0  0
 25 27  1  0  0  0  0
  1 34  1  0  0  0  0
  2 35  1  0  0  0  0
  3 36  1  0  0  0  0
  4 37  1  0  0  0  0
  5 38  1  0  0  0  0
  6 39  1  0  0  0  0
  7 40  1  0  0  0  0
  8 41  1  0  0  0  0
  9 42  1  0  0  0  0
 10 43  1  0  0  0  0
 21 44  1  0  0  0  0
 21 45  1  0  0  0  0
 22 46  1  0  0  0  0
 22 47  1  0  0  0  0
 22 48  1  0  0  0  0
 23 49  1  0  0  0  0
 23 50  1  0  0  0  0
 24 51  1  0  0  0  0
 24 52  1  0  0  0  0
 25 53  1  0  0  0  0
 25 54  1  0  0  0  0
 26 55  1  0  0  0  0
 27 56  1  0  0  0  0
 27 57  1  0  0  0  0
M  CHG  2  27   1  28  -1
M  END
$$$$
