AVX17628_1
  -OEChem-04011314553D

 56 59  0     1  0  0  0  0  0999 V2000
   -0.2552    2.4943    0.4046 C   0  0  0  0  0  0  0  0  0  0  0  0
   -3.8662   -2.0400    4.4995 C   0  0  0  0  0  0  0  0  0  0  0  0
   -1.4963    2.7397   -0.1828 C   0  0  0  0  0  0  0  0  0  0  0  0
    0.3527    1.2477    0.2555 C   0  0  0  0  0  0  0  0  0  0  0  0
   -3.0963   -3.1382    4.1164 C   0  0  0  0  0  0  0  0  0  0  0  0
   -4.5974   -1.3336    3.5444 C   0  0  0  0  0  0  0  0  0  0  0  0
   -2.1296    1.7385   -0.9191 C   0  0  0  0  0  0  0  0  0  0  0  0
   -0.2806    0.2465   -0.4808 C   0  0  0  0  0  0  0  0  0  0  0  0
   -3.0573   -3.5299    2.7782 C   0  0  0  0  0  0  0  0  0  0  0  0
   -4.5584   -1.7253    2.2062 C   0  0  0  0  0  0  0  0  0  0  0  0
   -6.7158   -8.2884    1.7712 C   0  0  0  0  0  0  0  0  0  0  0  0
   -7.1044   -8.7782    3.0204 C   0  0  0  0  0  0  0  0  0  0  0  0
   -4.5232   -9.3219    2.0003 C   0  0  0  0  0  0  0  0  0  0  0  0
   -1.5218    0.4919   -1.0682 C   0  0  0  0  0  0  0  0  0  0  0  0
   -3.7884   -2.8234    1.8231 C   0  0  0  0  0  0  0  0  0  0  0  0
   -5.4326   -8.5588    1.2640 C   0  0  0  0  0  0  0  0  0  0  0  0
   -6.1877   -9.5291    3.7272 C   0  0  0  0  0  0  0  0  0  0  0  0
   -4.9317   -9.7937    3.2308 C   0  0  0  0  0  0  0  0  0  0  0  0
   -3.1747   -9.6197    1.4914 C   0  0  0  0  0  0  0  0  0  0  0  0
   -2.6227   -2.5533   -0.3874 C   0  0  0  0  0  0  0  0  0  0  0  0
   -4.6264   -5.5672    0.1577 C   0  0  0  0  0  0  0  0  0  0  0  0
   -5.1156  -10.7306    5.1725 C   0  0  0  0  0  0  0  0  0  0  0  0
   -2.2030   -0.5863   -1.8604 C   0  0  0  0  0  0  0  0  0  0  0  0
   -5.0633   -8.0127   -0.0777 C   0  0  0  0  0  0  0  0  0  0  0  0
   -3.7464   -3.2470    0.3733 C   0  0  1  0  0  0  0  0  0  0  0  0
   -3.0598   -1.4055   -1.0337 N   0  0  0  0  0  0  0  0  0  0  0  0
   -4.1786   -6.8812    0.0199 N   0  0  0  0  0  0  0  0  0  0  0  0
   -3.5621   -4.6719    0.2288 N   0  0  0  0  0  0  0  0  0  0  0  0
   -2.9987  -10.6844    0.7882 O   0  5  0  0  0  0  0  0  0  0  0  0
   -2.2148   -8.8062    1.7661 O   0  0  0  0  0  0  0  0  0  0  0  0
   -1.4785   -3.0001   -0.4402 O   0  0  0  0  0  0  0  0  0  0  0  0
   -5.8115   -5.2407    0.2105 O   0  0  0  0  0  0  0  0  0  0  0  0
   -6.3871  -10.0862    4.9526 O   0  0  0  0  0  0  0  0  0  0  0  0
   -4.1875  -10.5495    4.0834 O   0  0  0  0  0  0  0  0  0  0  0  0
    0.2384    3.2744    0.9768 H   0  0  0  0  0  0  0  0  0  0  0  0
   -3.8976   -1.7360    5.5417 H   0  0  0  0  0  0  0  0  0  0  0  0
   -1.9693    3.7106   -0.0678 H   0  0  0  0  0  0  0  0  0  0  0  0
    1.3195    1.0566    0.7118 H   0  0  0  0  0  0  0  0  0  0  0  0
   -2.5278   -3.6890    4.8601 H   0  0  0  0  0  0  0  0  0  0  0  0
   -5.1978   -0.4792    3.8425 H   0  0  0  0  0  0  0  0  0  0  0  0
   -3.0966    1.9387   -1.3731 H   0  0  0  0  0  0  0  0  0  0  0  0
    0.2005   -0.7217   -0.5915 H   0  0  0  0  0  0  0  0  0  0  0  0
   -2.4544   -4.3866    2.4889 H   0  0  0  0  0  0  0  0  0  0  0  0
   -5.1311   -1.1688    1.4690 H   0  0  0  0  0  0  0  0  0  0  0  0
   -7.4179   -7.6938    1.1915 H   0  0  0  0  0  0  0  0  0  0  0  0
   -8.0928   -8.5722    3.4150 H   0  0  0  0  0  0  0  0  0  0  0  0
   -4.6685  -10.3221    6.0860 H   0  0  0  0  0  0  0  0  0  0  0  0
   -5.2860  -11.8042    5.3134 H   0  0  0  0  0  0  0  0  0  0  0  0
   -2.8177   -0.1510   -2.6559 H   0  0  0  0  0  0  0  0  0  0  0  0
   -1.4704   -1.2447   -2.3389 H   0  0  0  0  0  0  0  0  0  0  0  0
   -4.5617   -8.7753   -0.6875 H   0  0  0  0  0  0  0  0  0  0  0  0
   -5.9514   -7.6900   -0.6359 H   0  0  0  0  0  0  0  0  0  0  0  0
   -4.7002   -3.0235   -0.1197 H   0  0  0  0  0  0  0  0  0  0  0  0
   -4.0276   -1.1146   -0.9317 H   0  0  0  0  0  0  0  0  0  0  0  0
   -3.1754   -7.0484   -0.0135 H   0  0  0  0  0  0  0  0  0  0  0  0
   -2.6149   -5.0371    0.2236 H   0  0  0  0  0  0  0  0  0  0  0  0
  1  3  2  0  0  0  0
  1  4  1  0  0  0  0
  2  5  2  0  0  0  0
  2  6  1  0  0  0  0
  3  7  1  0  0  0  0
  4  8  2  0  0  0  0
  5  9  1  0  0  0  0
  6 10  2  0  0  0  0
  7 14  2  0  0  0  0
  8 14  1  0  0  0  0
  9 15  2  0  0  0  0
 10 15  1  0  0  0  0
 11 12  1  0  0  0  0
 11 16  2  0  0  0  0
 12 17  2  0  0  0  0
 13 16  1  0  0  0  0
 13 18  2  0  0  0  0
 13 19  1  0  0  0  0
 14 23  1  0  0  0  0
 15 25  1  0  0  0  0
 16 24  1  0  0  0  0
 17 18  1  0  0  0  0
 17 33  1  0  0  0  0
 18 34  1  0  0  0  0
 19 29  1  0  0  0  0
 19 30  2  0  0  0  0
 20 25  1  0  0  0  0
 20 26  1  0  0  0  0
 20 31  2  0  0  0  0
 21 27  1  0  0  0  0
 21 28  1  0  0  0  0
 21 32  2  0  0  0  0
 22 33  1  0  0  0  0
 22 34  1  0  0  0  0
 23 26  1  0  0  0  0
 24 27  1  0  0  0  0
 25 28  1  0  0  0  0
  1 35  1  0  0  0  0
  2 36  1  0  0  0  0
  3 37  1  0  0  0  0
  4 38  1  0  0  0  0
  5 39  1  0  0  0  0
  6 40  1  0  0  0  0
  7 41  1  0  0  0  0
  8 42  1  0  0  0  0
  9 43  1  0  0  0  0
 10 44  1  0  0  0  0
 11 45  1  0  0  0  0
 12 46  1  0  0  0  0
 22 47  1  0  0  0  0
 22 48  1  0  0  0  0
 23 49  1  0  0  0  0
 23 50  1  0  0  0  0
 24 51  1  0  0  0  0
 24 52  1  0  0  0  0
 25 53  1  0  0  0  0
 26 54  1  0  0  0  0
 27 55  1  0  0  0  0
 28 56  1  0  0  0  0
M  CHG  1  29  -1
M  END
$$$$
