AVX17259_1
  -OEChem-04011314523D

 32 34  0     1  0  0  0  0  0999 V2000
    1.7456    1.2722   -0.0364 C   0  0  0  0  0  0  0  0  0  0  0  0
    0.3605    1.0247   -0.0319 C   0  0  0  0  0  0  0  0  0  0  0  0
    0.1986    5.5234   -4.4818 C   0  0  0  0  0  0  0  0  0  0  0  0
    0.5544    4.2983   -5.0459 C   0  0  0  0  0  0  0  0  0  0  0  0
    2.2411    2.5795   -0.0765 C   0  0  0  0  0  0  0  0  0  0  0  0
    0.7830    5.9359   -3.2843 C   0  0  0  0  0  0  0  0  0  0  0  0
   -0.5529    2.0796   -0.0667 C   0  0  0  0  0  0  0  0  0  0  0  0
    2.0788    3.8980   -3.2147 C   0  0  0  0  0  0  0  0  0  0  0  0
    1.4944    3.4856   -4.4123 C   0  0  0  0  0  0  0  0  0  0  0  0
    1.3310    3.6196   -0.1151 C   0  0  0  0  0  0  0  0  0  0  0  0
    1.7230    5.1231   -2.6507 C   0  0  0  0  0  0  0  0  0  0  0  0
   -0.0377    3.3597   -0.1063 C   0  0  0  0  0  0  0  0  0  0  0  0
    0.1201    5.6550   -0.1898 C   0  0  0  0  0  0  0  0  0  0  0  0
    1.8699    2.1927   -5.0069 C   0  0  0  0  0  0  0  0  0  0  0  0
    1.5589    5.1040   -0.1489 C   0  0  2  0  0  0  0  0  0  0  0  0
    2.3543    5.5685   -1.3569 C   0  0  0  0  0  0  0  0  0  0  0  0
   -0.7446    4.5559   -0.1491 N   0  0  0  0  0  0  0  0  0  0  0  0
    2.7407    1.4617   -4.4017 O   0  5  0  0  0  0  0  0  0  0  0  0
   -0.1888    6.8357   -0.2463 O   0  0  0  0  0  0  0  0  0  0  0  0
    1.3158    1.8347   -6.1130 O   0  0  0  0  0  0  0  0  0  0  0  0
    2.4377    0.4346   -0.0071 H   0  0  0  0  0  0  0  0  0  0  0  0
    0.0006   -0.0002    0.0002 H   0  0  0  0  0  0  0  0  0  0  0  0
   -0.5332    6.1561   -4.9755 H   0  0  0  0  0  0  0  0  0  0  0  0
    0.0933    3.9866   -5.9795 H   0  0  0  0  0  0  0  0  0  0  0  0
    3.3096    2.7642   -0.0749 H   0  0  0  0  0  0  0  0  0  0  0  0
    0.4999    6.8919   -2.8522 H   0  0  0  0  0  0  0  0  0  0  0  0
   -1.6205    1.8925   -0.0630 H   0  0  0  0  0  0  0  0  0  0  0  0
    2.8120    3.2654   -2.7197 H   0  0  0  0  0  0  0  0  0  0  0  0
    2.0236    5.4313    0.7878 H   0  0  0  0  0  0  0  0  0  0  0  0
    3.3806    5.1845   -1.2969 H   0  0  0  0  0  0  0  0  0  0  0  0
    2.4410    6.6625   -1.3473 H   0  0  0  0  0  0  0  0  0  0  0  0
   -1.7563    4.6105   -0.1583 H   0  0  0  0  0  0  0  0  0  0  0  0
  1  2  2  0  0  0  0
  1  5  1  0  0  0  0
  2  7  1  0  0  0  0
  3  4  2  0  0  0  0
  3  6  1  0  0  0  0
  4  9  1  0  0  0  0
  5 10  2  0  0  0  0
  6 11  2  0  0  0  0
  7 12  2  0  0  0  0
  8  9  2  0  0  0  0
  8 11  1  0  0  0  0
  9 14  1  0  0  0  0
 10 12  1  0  0  0  0
 10 15  1  0  0  0  0
 11 16  1  0  0  0  0
 12 17  1  0  0  0  0
 13 15  1  0  0  0  0
 13 17  1  0  0  0  0
 13 19  2  0  0  0  0
 14 18  1  0  0  0  0
 14 20  2  0  0  0  0
 15 16  1  0  0  0  0
  1 21  1  0  0  0  0
  2 22  1  0  0  0  0
  3 23  1  0  0  0  0
  4 24  1  0  0  0  0
  5 25  1  0  0  0  0
  6 26  1  0  0  0  0
  7 27  1  0  0  0  0
  8 28  1  0  0  0  0
 15 29  1  0  0  0  0
 16 30  1  0  0  0  0
 16 31  1  0  0  0  0
 17 32  1  0  0  0  0
M  CHG  1  18  -1
M  END
$$$$
