AVX17379_0
  -OEChem-04011314533D

 32 33  0     0  0  0  0  0  0999 V2000
    1.8851   -1.0363   -0.1124 C   0  0  0  0  0  0  0  0  0  0  0  0
    0.8066   -0.4630    0.5610 C   0  0  0  0  0  0  0  0  0  0  0  0
    2.9210   -1.6309    0.6081 C   0  0  0  0  0  0  0  0  0  0  0  0
    0.7638   -0.4841    1.9551 C   0  0  0  0  0  0  0  0  0  0  0  0
    1.1171   -1.4221    6.1263 C   0  0  0  0  0  0  0  0  0  0  0  0
    2.8783   -1.6520    2.0022 C   0  0  0  0  0  0  0  0  0  0  0  0
    1.7997   -1.0786    2.6757 C   0  0  0  0  0  0  0  0  0  0  0  0
    2.3218   -0.6993    6.0371 C   0  0  0  0  0  0  0  0  0  0  0  0
    0.7620   -1.6600    4.8210 C   0  0  0  0  0  0  0  0  0  0  0  0
   -0.4033   -2.3698    4.2577 C   0  0  0  0  0  0  0  0  0  0  0  0
    4.0043   -2.2967    2.7449 C   0  0  0  0  0  0  0  0  0  0  0  0
    3.1418   -0.1830    7.1459 C   0  0  0  0  0  0  0  0  0  0  0  0
    2.7064   -0.4919    4.7750 N   0  0  0  0  0  0  0  0  0  0  0  0
    1.7378   -1.0879    4.0590 N   0  0  0  0  0  0  0  0  0  0  0  0
    5.1063   -1.3536    3.0751 N   0  3  0  0  0  0  0  0  0  0  0  0
    4.3081   -0.9912    7.3122 O   0  0  0  0  0  0  0  0  0  0  0  0
    1.9182   -1.0203   -1.1979 H   0  0  0  0  0  0  0  0  0  0  0  0
    0.0001    0.0001   -0.0000 H   0  0  0  0  0  0  0  0  0  0  0  0
    3.7569   -2.0744    0.0736 H   0  0  0  0  0  0  0  0  0  0  0  0
   -0.0838   -0.0324    2.4647 H   0  0  0  0  0  0  0  0  0  0  0  0
    0.5804   -1.7275    7.0131 H   0  0  0  0  0  0  0  0  0  0  0  0
   -1.2457   -1.6792    4.0893 H   0  0  0  0  0  0  0  0  0  0  0  0
   -0.1675   -2.8523    3.2938 H   0  0  0  0  0  0  0  0  0  0  0  0
   -0.7582   -3.1755    4.9230 H   0  0  0  0  0  0  0  0  0  0  0  0
    3.6647   -2.7231    3.6972 H   0  0  0  0  0  0  0  0  0  0  0  0
    4.4553   -3.1097    2.1622 H   0  0  0  0  0  0  0  0  0  0  0  0
    3.4739    0.8574    6.9732 H   0  0  0  0  0  0  0  0  0  0  0  0
    2.5907   -0.1804    8.1043 H   0  0  0  0  0  0  0  0  0  0  0  0
    5.5461   -1.6065    3.9647 H   0  0  0  0  0  0  0  0  0  0  0  0
    4.7519   -0.3959    3.1550 H   0  0  0  0  0  0  0  0  0  0  0  0
    5.8266   -1.3680    2.3470 H   0  0  0  0  0  0  0  0  0  0  0  0
    4.8040   -0.6058    8.0498 H   0  0  0  0  0  0  0  0  0  0  0  0
  1  2  1  0  0  0  0
  1  3  2  0  0  0  0
  2  4  2  0  0  0  0
  3  6  1  0  0  0  0
  4  7  1  0  0  0  0
  5  8  1  0  0  0  0
  5  9  2  0  0  0  0
  6  7  2  0  0  0  0
  6 11  1  0  0  0  0
  7 14  1  0  0  0  0
  8 12  1  0  0  0  0
  8 13  2  0  0  0  0
  9 10  1  0  0  0  0
  9 14  1  0  0  0  0
 11 15  1  0  0  0  0
 12 16  1  0  0  0  0
 13 14  1  0  0  0  0
  1 17  1  0  0  0  0
  2 18  1  0  0  0  0
  3 19  1  0  0  0  0
  4 20  1  0  0  0  0
  5 21  1  0  0  0  0
 10 22  1  0  0  0  0
 10 23  1  0  0  0  0
 10 24  1  0  0  0  0
 11 25  1  0  0  0  0
 11 26  1  0  0  0  0
 12 27  1  0  0  0  0
 12 28  1  0  0  0  0
 15 29  1  0  0  0  0
 15 30  1  0  0  0  0
 15 31  1  0  0  0  0
 16 32  1  0  0  0  0
M  CHG  1  15   1
M  END
$$$$
