AVX16757_0
  -OEChem-04011314513D

 56 59  0     0  0  0  0  0  0999 V2000
   -4.4176   -0.4924    3.0908 C   0  0  0  0  0  0  0  0  0  0  0  0
   -4.3411   -0.9565    4.4040 C   0  0  0  0  0  0  0  0  0  0  0  0
   -3.7759    0.6929    2.7315 C   0  0  0  0  0  0  0  0  0  0  0  0
   -5.8529   -0.6741   10.6305 C   0  0  0  0  0  0  0  0  0  0  0  0
   -2.9813    0.9500    4.9985 C   0  0  0  0  0  0  0  0  0  0  0  0
   -3.1026   -0.6469   10.1945 C   0  0  0  0  0  0  0  0  0  0  0  0
   -3.6230   -0.2353    5.3578 C   0  0  0  0  0  0  0  0  0  0  0  0
   -5.3448   -0.2100    9.4175 C   0  0  0  0  0  0  0  0  0  0  0  0
   -3.9703   -0.2066    9.1955 C   0  0  0  0  0  0  0  0  0  0  0  0
   -4.9897   -1.1422   11.6278 C   0  0  0  0  0  0  0  0  0  0  0  0
   -3.6038   -1.0893   11.4242 C   0  0  0  0  0  0  0  0  0  0  0  0
   -3.0578    1.4141    3.6853 C   0  0  0  0  0  0  0  0  0  0  0  0
   -3.5394   -0.7331    6.7629 C   0  0  0  0  0  0  0  0  0  0  0  0
   -6.2816    0.2612    8.3814 C   0  0  0  0  0  0  0  0  0  0  0  0
   -5.9592    5.4437    4.1642 C   0  0  0  0  0  0  0  0  0  0  0  0
   -4.8038    5.3636    5.1580 C   0  0  0  0  0  0  0  0  0  0  0  0
   -5.4506    5.3079    2.7317 C   0  0  0  0  0  0  0  0  0  0  0  0
   -3.8450   -2.2516   14.3040 C   0  0  0  0  0  0  0  0  0  0  0  0
   -3.9786    4.0982    4.9490 C   0  0  0  0  0  0  0  0  0  0  0  0
   -4.6173    4.0426    2.5567 C   0  0  0  0  0  0  0  0  0  0  0  0
   -4.9446   -2.7218   13.3644 C   0  0  0  0  0  0  0  0  0  0  0  0
   -2.9979   -1.1467   13.6920 C   0  0  0  0  0  0  0  0  0  0  0  0
   -3.3988    0.2730    7.9013 C   0  0  0  0  0  0  0  0  0  0  0  0
   -3.4928    4.0440    3.5385 N   0  0  0  0  0  0  0  0  0  0  0  0
   -6.6094    1.5054    8.3652 O   0  5  0  0  0  0  0  0  0  0  0  0
   -3.5841   -1.9437    6.9711 O   0  0  0  0  0  0  0  0  0  0  0  0
   -6.7388   -0.5884    7.5299 O   0  0  0  0  0  0  0  0  0  0  0  0
   -1.1609    3.1295    4.1673 O   0  0  0  0  0  0  0  0  0  0  0  0
   -1.9905    2.8641    1.8031 O   0  0  0  0  0  0  0  0  0  0  0  0
   -5.6102   -1.6147   12.7567 O   0  0  0  0  0  0  0  0  0  0  0  0
   -2.6506   -1.4531   12.3416 O   0  0  0  0  0  0  0  0  0  0  0  0
   -2.2551    2.8976    3.2348 S   0  0  0  0  0  0  0  0  0  0  0  0
   -4.9773   -1.0537    2.3480 H   0  0  0  0  0  0  0  0  0  0  0  0
   -4.8451   -1.8813    4.6722 H   0  0  0  0  0  0  0  0  0  0  0  0
   -3.8423    1.0460    1.7059 H   0  0  0  0  0  0  0  0  0  0  0  0
   -6.9284   -0.6939   10.7959 H   0  0  0  0  0  0  0  0  0  0  0  0
   -2.4213    1.5128    5.7420 H   0  0  0  0  0  0  0  0  0  0  0  0
   -2.0279   -0.6279   10.0254 H   0  0  0  0  0  0  0  0  0  0  0  0
   -6.6815    4.6455    4.3751 H   0  0  0  0  0  0  0  0  0  0  0  0
   -6.4874    6.3963    4.2831 H   0  0  0  0  0  0  0  0  0  0  0  0
   -4.1610    6.2444    5.0351 H   0  0  0  0  0  0  0  0  0  0  0  0
   -5.1930    5.3882    6.1819 H   0  0  0  0  0  0  0  0  0  0  0  0
   -6.2980    5.2930    2.0373 H   0  0  0  0  0  0  0  0  0  0  0  0
   -4.8418    6.1854    2.4804 H   0  0  0  0  0  0  0  0  0  0  0  0
   -4.2792   -1.8783   15.2386 H   0  0  0  0  0  0  0  0  0  0  0  0
   -3.2168   -3.1125   14.5608 H   0  0  0  0  0  0  0  0  0  0  0  0
   -3.1206    4.1160    5.6298 H   0  0  0  0  0  0  0  0  0  0  0  0
   -4.5759    3.2056    5.1680 H   0  0  0  0  0  0  0  0  0  0  0  0
   -5.2342    3.1485    2.7032 H   0  0  0  0  0  0  0  0  0  0  0  0
   -4.2126    4.0209    1.5390 H   0  0  0  0  0  0  0  0  0  0  0  0
   -4.5619   -3.4180   12.6056 H   0  0  0  0  0  0  0  0  0  0  0  0
   -5.6928   -3.2803   13.9376 H   0  0  0  0  0  0  0  0  0  0  0  0
   -3.4924   -0.1682   13.7610 H   0  0  0  0  0  0  0  0  0  0  0  0
   -2.0643   -1.0548   14.2579 H   0  0  0  0  0  0  0  0  0  0  0  0
   -3.8986    1.2077    7.6022 H   0  0  0  0  0  0  0  0  0  0  0  0
   -2.3292    0.5011    8.0325 H   0  0  0  0  0  0  0  0  0  0  0  0
  1  2  2  0  0  0  0
  1  3  1  0  0  0  0
  2  7  1  0  0  0  0
  3 12  2  0  0  0  0
  4  8  2  0  0  0  0
  4 10  1  0  0  0  0
  5  7  2  0  0  0  0
  5 12  1  0  0  0  0
  6  9  2  0  0  0  0
  6 11  1  0  0  0  0
  7 13  1  0  0  0  0
  8  9  1  0  0  0  0
  8 14  1  0  0  0  0
  9 23  1  0  0  0  0
 10 11  2  0  0  0  0
 10 30  1  0  0  0  0
 11 31  1  0  0  0  0
 12 32  1  0  0  0  0
 13 23  1  0  0  0  0
 13 26  2  0  0  0  0
 14 25  1  0  0  0  0
 14 27  2  0  0  0  0
 15 16  1  0  0  0  0
 15 17  1  0  0  0  0
 16 19  1  0  0  0  0
 17 20  1  0  0  0  0
 18 21  1  0  0  0  0
 18 22  1  0  0  0  0
 19 24  1  0  0  0  0
 20 24  1  0  0  0  0
 21 30  1  0  0  0  0
 22 31  1  0  0  0  0
 24 32  1  0  0  0  0
 28 32  2  0  0  0  0
 29 32  2  0  0  0  0
  1 33  1  0  0  0  0
  2 34  1  0  0  0  0
  3 35  1  0  0  0  0
  4 36  1  0  0  0  0
  5 37  1  0  0  0  0
  6 38  1  0  0  0  0
 15 39  1  0  0  0  0
 15 40  1  0  0  0  0
 16 41  1  0  0  0  0
 16 42  1  0  0  0  0
 17 43  1  0  0  0  0
 17 44  1  0  0  0  0
 18 45  1  0  0  0  0
 18 46  1  0  0  0  0
 19 47  1  0  0  0  0
 19 48  1  0  0  0  0
 20 49  1  0  0  0  0
 20 50  1  0  0  0  0
 21 51  1  0  0  0  0
 21 52  1  0  0  0  0
 22 53  1  0  0  0  0
 22 54  1  0  0  0  0
 23 55  1  0  0  0  0
 23 56  1  0  0  0  0
M  CHG  1  25  -1
M  END
$$$$
