AVX17558_0
  -OEChem-04011314543D

 53 56  0     1  0  0  0  0  0999 V2000
    2.0069    1.7310   -0.6805 C   0  0  0  0  0  0  0  0  0  0  0  0
    2.2404    0.4799   -1.2717 C   0  0  0  0  0  0  0  0  0  0  0  0
    0.8190    1.9810    0.0082 C   0  0  0  0  0  0  0  0  0  0  0  0
    1.2891   -0.5394   -1.1834 C   0  0  0  0  0  0  0  0  0  0  0  0
   -2.8161   -3.8512    0.6873 C   0  0  0  0  0  0  0  0  0  0  0  0
   -3.9375   -4.6567    0.4751 C   0  0  0  0  0  0  0  0  0  0  0  0
   -2.1912   -4.0290   -1.6592 C   0  0  0  0  0  0  0  0  0  0  0  0
   -0.1125    0.9601    0.1024 C   0  0  0  0  0  0  0  0  0  0  0  0
    0.1167   -0.2913   -0.4868 C   0  0  0  0  0  0  0  0  0  0  0  0
   -1.9480   -3.5390   -0.3737 C   0  0  0  0  0  0  0  0  0  0  0  0
   -4.1549   -5.1277   -0.8034 C   0  0  0  0  0  0  0  0  0  0  0  0
   -3.3053   -4.8221   -1.8420 C   0  0  0  0  0  0  0  0  0  0  0  0
   -1.2985   -3.7160   -2.7867 C   0  0  0  0  0  0  0  0  0  0  0  0
   -2.0952   -0.9625    3.3436 C   0  0  0  0  0  0  0  0  0  0  0  0
   -1.4594    1.0068    0.7597 C   0  0  0  0  0  0  0  0  0  0  0  0
   -4.8944   -6.0797   -2.6003 C   0  0  0  0  0  0  0  0  0  0  0  0
   -1.0743   -1.1908   -0.2824 C   0  0  2  0  0  0  0  0  0  0  0  0
   -1.7710   -0.4967    0.9214 C   0  0  1  0  0  0  0  0  0  0  0  0
   -0.7528   -2.6669   -0.0948 C   0  0  0  0  0  0  0  0  0  0  0  0
   -1.3505   -1.5155    4.5459 C   0  0  0  0  0  0  0  0  0  0  0  0
   -2.2031   -1.5144    5.8124 C   0  0  0  0  0  0  0  0  0  0  0  0
   -1.4136   -2.0359    7.0033 C   0  0  0  0  0  0  0  0  0  0  0  0
   -1.3022   -0.9736    2.2078 N   0  0  0  0  0  0  0  0  0  0  0  0
   -2.2932   -2.0595    8.1967 N   0  3  0  0  0  0  0  0  0  0  0  0
   -1.5386   -2.6674   -3.4948 O   0  5  0  0  0  0  0  0  0  0  0  0
   -0.3067   -4.5013   -3.0285 O   0  0  0  0  0  0  0  0  0  0  0  0
   -3.2542   -0.5602    3.3963 O   0  0  0  0  0  0  0  0  0  0  0  0
   -5.1888   -5.9199   -1.1975 O   0  0  0  0  0  0  0  0  0  0  0  0
   -3.7007   -5.3851   -3.0162 O   0  0  0  0  0  0  0  0  0  0  0  0
    2.7566    2.5131   -0.7651 H   0  0  0  0  0  0  0  0  0  0  0  0
    3.1684    0.3057   -1.8097 H   0  0  0  0  0  0  0  0  0  0  0  0
    0.6345    2.9522    0.4544 H   0  0  0  0  0  0  0  0  0  0  0  0
    1.4725   -1.4974   -1.6578 H   0  0  0  0  0  0  0  0  0  0  0  0
   -2.6199   -3.4654    1.6849 H   0  0  0  0  0  0  0  0  0  0  0  0
   -4.6094   -4.8997    1.2904 H   0  0  0  0  0  0  0  0  0  0  0  0
   -1.4342    1.5384    1.7158 H   0  0  0  0  0  0  0  0  0  0  0  0
   -2.1761    1.4849    0.0830 H   0  0  0  0  0  0  0  0  0  0  0  0
   -4.7710   -7.1477   -2.8136 H   0  0  0  0  0  0  0  0  0  0  0  0
   -5.7420   -5.6999   -3.1823 H   0  0  0  0  0  0  0  0  0  0  0  0
   -1.7182   -1.0792   -1.1687 H   0  0  0  0  0  0  0  0  0  0  0  0
   -2.8517   -0.6815    0.9103 H   0  0  0  0  0  0  0  0  0  0  0  0
   -0.3985   -2.8401    0.9281 H   0  0  0  0  0  0  0  0  0  0  0  0
    0.0751   -2.9509   -0.7551 H   0  0  0  0  0  0  0  0  0  0  0  0
   -0.4508   -0.9078    4.7004 H   0  0  0  0  0  0  0  0  0  0  0  0
   -1.0311   -2.5378    4.3105 H   0  0  0  0  0  0  0  0  0  0  0  0
   -3.0963   -2.1328    5.6564 H   0  0  0  0  0  0  0  0  0  0  0  0
   -2.5590   -0.4964    6.0164 H   0  0  0  0  0  0  0  0  0  0  0  0
   -1.0643   -3.0607    6.8464 H   0  0  0  0  0  0  0  0  0  0  0  0
   -0.5648   -1.3905    7.2473 H   0  0  0  0  0  0  0  0  0  0  0  0
   -0.3415   -1.2919    2.2694 H   0  0  0  0  0  0  0  0  0  0  0  0
   -2.0813   -2.8662    8.7939 H   0  0  0  0  0  0  0  0  0  0  0  0
   -3.2805   -2.1196    7.9239 H   0  0  0  0  0  0  0  0  0  0  0  0
   -2.1725   -1.2100    8.7593 H   0  0  0  0  0  0  0  0  0  0  0  0
  1  2  1  0  0  0  0
  1  3  2  0  0  0  0
  2  4  2  0  0  0  0
  3  8  1  0  0  0  0
  4  9  1  0  0  0  0
  5  6  2  0  0  0  0
  5 10  1  0  0  0  0
  6 11  1  0  0  0  0
  7 10  2  0  0  0  0
  7 12  1  0  0  0  0
  7 13  1  0  0  0  0
  8  9  2  0  0  0  0
  8 15  1  0  0  0  0
  9 17  1  0  0  0  0
 10 19  1  0  0  0  0
 11 12  2  0  0  0  0
 11 28  1  0  0  0  0
 12 29  1  0  0  0  0
 13 25  1  0  0  0  0
 13 26  2  0  0  0  0
 14 20  1  0  0  0  0
 14 23  1  0  0  0  0
 14 27  2  0  0  0  0
 15 18  1  0  0  0  0
 16 28  1  0  0  0  0
 16 29  1  0  0  0  0
 17 18  1  0  0  0  0
 17 19  1  0  0  0  0
 18 23  1  0  0  0  0
 20 21  1  0  0  0  0
 21 22  1  0  0  0  0
 22 24  1  0  0  0  0
  1 30  1  0  0  0  0
  2 31  1  0  0  0  0
  3 32  1  0  0  0  0
  4 33  1  0  0  0  0
  5 34  1  0  0  0  0
  6 35  1  0  0  0  0
 15 36  1  0  0  0  0
 15 37  1  0  0  0  0
 16 38  1  0  0  0  0
 16 39  1  0  0  0  0
 17 40  1  0  0  0  0
 18 41  1  0  0  0  0
 19 42  1  0  0  0  0
 19 43  1  0  0  0  0
 20 44  1  0  0  0  0
 20 45  1  0  0  0  0
 21 46  1  0  0  0  0
 21 47  1  0  0  0  0
 22 48  1  0  0  0  0
 22 49  1  0  0  0  0
 23 50  1  0  0  0  0
 24 51  1  0  0  0  0
 24 52  1  0  0  0  0
 24 53  1  0  0  0  0
M  CHG  2  24   1  25  -1
M  END
$$$$
