AVX17557_2
  -OEChem-04011314543D

 59 62  0     1  0  0  0  0  0999 V2000
   -2.0130    1.1304   -1.6264 C   0  0  0  0  0  0  0  0  0  0  0  0
   -1.6942    2.0339   -0.6017 C   0  0  0  0  0  0  0  0  0  0  0  0
   -1.3986   -0.1214   -1.6859 C   0  0  0  0  0  0  0  0  0  0  0  0
   -0.7561    1.6986    0.3777 C   0  0  0  0  0  0  0  0  0  0  0  0
    2.4932   -0.4707    3.8094 C   0  0  0  0  0  0  0  0  0  0  0  0
    3.3824   -1.1217    4.6679 C   0  0  0  0  0  0  0  0  0  0  0  0
    4.3021    0.0595    2.2684 C   0  0  0  0  0  0  0  0  0  0  0  0
   -0.4605   -0.4407   -0.7175 C   0  0  0  0  0  0  0  0  0  0  0  0
   -0.1380    0.4594    0.3068 C   0  0  0  0  0  0  0  0  0  0  0  0
    2.9503    0.1164    2.6165 C   0  0  0  0  0  0  0  0  0  0  0  0
    4.7118   -1.1637    4.3010 C   0  0  0  0  0  0  0  0  0  0  0  0
    5.1593   -0.5891    3.1333 C   0  0  0  0  0  0  0  0  0  0  0  0
    4.8055    0.6652    1.0252 C   0  0  0  0  0  0  0  0  0  0  0  0
    2.9458   -3.2328    0.7381 C   0  0  0  0  0  0  0  0  0  0  0  0
    0.2911   -1.7253   -0.5655 C   0  0  0  0  0  0  0  0  0  0  0  0
    6.8471   -1.4806    4.1523 C   0  0  0  0  0  0  0  0  0  0  0  0
    0.8646   -0.1477    1.2506 C   0  0  1  0  0  0  0  0  0  0  0  0
    1.4297   -1.2961    0.3775 C   0  0  1  0  0  0  0  0  0  0  0  0
    1.9534    0.8064    1.7243 C   0  0  0  0  0  0  0  0  0  0  0  0
    3.2340   -4.3225    1.7579 C   0  0  0  0  0  0  0  0  0  0  0  0
    4.3559   -5.2732    1.3430 C   0  0  0  0  0  0  0  0  0  0  0  0
    4.6244   -6.3540    2.3961 C   0  0  0  0  0  0  0  0  0  0  0  0
    5.7695   -7.2745    1.9624 C   0  0  0  0  0  0  0  0  0  0  0  0
    6.0890   -8.3647    2.9778 C   0  0  0  0  0  0  0  0  0  0  0  0
    1.9216   -2.3975    1.1602 N   0  0  0  0  0  0  0  0  0  0  0  0
    4.9112   -9.2362    3.1989 N   0  3  0  0  0  0  0  0  0  0  0  0
    4.8363   -0.0508   -0.0450 O   0  5  0  0  0  0  0  0  0  0  0  0
    5.1992    1.8913    1.0481 O   0  0  0  0  0  0  0  0  0  0  0  0
    3.5435   -3.1363   -0.3303 O   0  0  0  0  0  0  0  0  0  0  0  0
    5.7166   -1.7508    5.0063 O   0  0  0  0  0  0  0  0  0  0  0  0
    6.5003   -0.7441    2.9616 O   0  0  0  0  0  0  0  0  0  0  0  0
   -2.7498    1.4064   -2.3760 H   0  0  0  0  0  0  0  0  0  0  0  0
   -2.1879    3.0013   -0.5663 H   0  0  0  0  0  0  0  0  0  0  0  0
   -1.6542   -0.8234   -2.4723 H   0  0  0  0  0  0  0  0  0  0  0  0
   -0.5282    2.3982    1.1746 H   0  0  0  0  0  0  0  0  0  0  0  0
    1.4392   -0.4224    4.0729 H   0  0  0  0  0  0  0  0  0  0  0  0
    3.0340   -1.5757    5.5886 H   0  0  0  0  0  0  0  0  0  0  0  0
   -0.3540   -2.4884   -0.1161 H   0  0  0  0  0  0  0  0  0  0  0  0
    0.6841   -2.0923   -1.5187 H   0  0  0  0  0  0  0  0  0  0  0  0
    7.5853   -0.9024    4.7199 H   0  0  0  0  0  0  0  0  0  0  0  0
    7.2989   -2.4342    3.8560 H   0  0  0  0  0  0  0  0  0  0  0  0
    0.3271   -0.5529    2.1183 H   0  0  0  0  0  0  0  0  0  0  0  0
    2.2739   -0.9327   -0.2262 H   0  0  0  0  0  0  0  0  0  0  0  0
    1.4981    1.6483    2.2583 H   0  0  0  0  0  0  0  0  0  0  0  0
    2.4673    1.2377    0.8577 H   0  0  0  0  0  0  0  0  0  0  0  0
    3.4652   -3.8622    2.7257 H   0  0  0  0  0  0  0  0  0  0  0  0
    2.3083   -4.8985    1.8791 H   0  0  0  0  0  0  0  0  0  0  0  0
    4.0674   -5.7594    0.4029 H   0  0  0  0  0  0  0  0  0  0  0  0
    5.2760   -4.7115    1.1420 H   0  0  0  0  0  0  0  0  0  0  0  0
    3.7154   -6.9484    2.5491 H   0  0  0  0  0  0  0  0  0  0  0  0
    4.8670   -5.8824    3.3540 H   0  0  0  0  0  0  0  0  0  0  0  0
    5.4986   -7.7594    1.0164 H   0  0  0  0  0  0  0  0  0  0  0  0
    6.6677   -6.6765    1.7642 H   0  0  0  0  0  0  0  0  0  0  0  0
    6.9089   -9.0093    2.6476 H   0  0  0  0  0  0  0  0  0  0  0  0
    6.3400   -7.9291    3.9494 H   0  0  0  0  0  0  0  0  0  0  0  0
    1.4984   -2.5726    2.0669 H   0  0  0  0  0  0  0  0  0  0  0  0
    4.2018   -9.0887    2.4723 H   0  0  0  0  0  0  0  0  0  0  0  0
    4.4755   -9.0426    4.1079 H   0  0  0  0  0  0  0  0  0  0  0  0
    5.1775  -10.2272    3.1823 H   0  0  0  0  0  0  0  0  0  0  0  0
  1  2  1  0  0  0  0
  1  3  2  0  0  0  0
  2  4  2  0  0  0  0
  3  8  1  0  0  0  0
  4  9  1  0  0  0  0
  5  6  2  0  0  0  0
  5 10  1  0  0  0  0
  6 11  1  0  0  0  0
  7 10  2  0  0  0  0
  7 12  1  0  0  0  0
  7 13  1  0  0  0  0
  8  9  2  0  0  0  0
  8 15  1  0  0  0  0
  9 17  1  0  0  0  0
 10 19  1  0  0  0  0
 11 12  2  0  0  0  0
 11 30  1  0  0  0  0
 12 31  1  0  0  0  0
 13 27  1  0  0  0  0
 13 28  2  0  0  0  0
 14 20  1  0  0  0  0
 14 25  1  0  0  0  0
 14 29  2  0  0  0  0
 15 18  1  0  0  0  0
 16 30  1  0  0  0  0
 16 31  1  0  0  0  0
 17 18  1  0  0  0  0
 17 19  1  0  0  0  0
 18 25  1  0  0  0  0
 20 21  1  0  0  0  0
 21 22  1  0  0  0  0
 22 23  1  0  0  0  0
 23 24  1  0  0  0  0
 24 26  1  0  0  0  0
  1 32  1  0  0  0  0
  2 33  1  0  0  0  0
  3 34  1  0  0  0  0
  4 35  1  0  0  0  0
  5 36  1  0  0  0  0
  6 37  1  0  0  0  0
 15 38  1  0  0  0  0
 15 39  1  0  0  0  0
 16 40  1  0  0  0  0
 16 41  1  0  0  0  0
 17 42  1  0  0  0  0
 18 43  1  0  0  0  0
 19 44  1  0  0  0  0
 19 45  1  0  0  0  0
 20 46  1  0  0  0  0
 20 47  1  0  0  0  0
 21 48  1  0  0  0  0
 21 49  1  0  0  0  0
 22 50  1  0  0  0  0
 22 51  1  0  0  0  0
 23 52  1  0  0  0  0
 23 53  1  0  0  0  0
 24 54  1  0  0  0  0
 24 55  1  0  0  0  0
 25 56  1  0  0  0  0
 26 57  1  0  0  0  0
 26 58  1  0  0  0  0
 26 59  1  0  0  0  0
M  CHG  2  26   1  27  -1
M  END
$$$$
