AVX17268_0
  -OEChem-04011314523D

 41 44  0     0  0  0  0  0  0999 V2000
   -6.5754   -0.6533    1.2621 C   0  0  0  0  0  0  0  0  0  0  0  0
   -5.7533   -1.5141    0.5375 C   0  0  0  0  0  0  0  0  0  0  0  0
   -6.0527    0.1409    2.2892 C   0  0  0  0  0  0  0  0  0  0  0  0
   -2.7356    1.6243    6.5589 C   0  0  0  0  0  0  0  0  0  0  0  0
   -4.3865   -1.6089    0.8148 C   0  0  0  0  0  0  0  0  0  0  0  0
   -2.4517    1.2677    7.8793 C   0  0  0  0  0  0  0  0  0  0  0  0
   -2.5561    0.2159    3.3517 C   0  0  0  0  0  0  0  0  0  0  0  0
   -4.6777    0.0622    2.5869 C   0  0  0  0  0  0  0  0  0  0  0  0
   -4.9430    0.6087    6.7140 C   0  0  0  0  0  0  0  0  0  0  0  0
   -3.9741    1.2968    5.9795 C   0  0  0  0  0  0  0  0  0  0  0  0
   -3.8302    0.7022    3.5340 C   0  0  0  0  0  0  0  0  0  0  0  0
   -3.8780   -0.8091    1.8443 C   0  0  0  0  0  0  0  0  0  0  0  0
   -3.4254    0.5889    8.5827 C   0  0  0  0  0  0  0  0  0  0  0  0
   -4.6377    0.2683    8.0157 C   0  0  0  0  0  0  0  0  0  0  0  0
   -6.2330    0.2570    6.1388 C   0  0  0  0  0  0  0  0  0  0  0  0
   -4.6161   -0.4621   10.0524 C   0  0  0  0  0  0  0  0  0  0  0  0
   -4.2341    1.7076    4.5379 C   0  0  0  0  0  0  0  0  0  0  0  0
   -7.4192    1.2343    6.2579 C   0  0  0  0  0  0  0  0  0  0  0  0
   -8.7808    0.5518    6.2998 C   0  0  0  0  0  0  0  0  0  0  0  0
   -2.5950   -0.6949    2.3302 N   0  0  0  0  0  0  0  0  0  0  0  0
   -6.3907   -0.8300    5.5475 O   0  0  0  0  0  0  0  0  0  0  0  0
   -3.3290    0.1632    9.8717 O   0  0  0  0  0  0  0  0  0  0  0  0
   -5.4519   -0.3984    8.8786 O   0  0  0  0  0  0  0  0  0  0  0  0
   -8.8335   -0.3321    7.4123 O   0  0  0  0  0  0  0  0  0  0  0  0
   -7.6350   -0.5966    1.0276 H   0  0  0  0  0  0  0  0  0  0  0  0
   -6.1803   -2.1219   -0.2560 H   0  0  0  0  0  0  0  0  0  0  0  0
   -6.7066    0.8076    2.8443 H   0  0  0  0  0  0  0  0  0  0  0  0
   -1.9865    2.1603    5.9809 H   0  0  0  0  0  0  0  0  0  0  0  0
   -3.7476   -2.2801    0.2509 H   0  0  0  0  0  0  0  0  0  0  0  0
   -1.4983    1.5188    8.3299 H   0  0  0  0  0  0  0  0  0  0  0  0
   -1.6250    0.4365    3.8553 H   0  0  0  0  0  0  0  0  0  0  0  0
   -4.4610   -1.5149   10.3163 H   0  0  0  0  0  0  0  0  0  0  0  0
   -5.1347    0.0355   10.8797 H   0  0  0  0  0  0  0  0  0  0  0  0
   -5.3092    1.9631    4.4397 H   0  0  0  0  0  0  0  0  0  0  0  0
   -3.7292    2.6789    4.3584 H   0  0  0  0  0  0  0  0  0  0  0  0
   -7.2861    1.7995    7.1866 H   0  0  0  0  0  0  0  0  0  0  0  0
   -7.3801    1.9102    5.3965 H   0  0  0  0  0  0  0  0  0  0  0  0
   -9.5967    1.2766    6.3845 H   0  0  0  0  0  0  0  0  0  0  0  0
   -8.9280   -0.0410    5.3915 H   0  0  0  0  0  0  0  0  0  0  0  0
   -1.7976   -1.2095    1.9826 H   0  0  0  0  0  0  0  0  0  0  0  0
   -8.6941    0.2089    8.2061 H   0  0  0  0  0  0  0  0  0  0  0  0
  1  2  2  0  0  0  0
  1  3  1  0  0  0  0
  2  5  1  0  0  0  0
  3  8  2  0  0  0  0
  4  6  2  0  0  0  0
  4 10  1  0  0  0  0
  5 12  2  0  0  0  0
  6 13  1  0  0  0  0
  7 11  2  0  0  0  0
  7 20  1  0  0  0  0
  8 11  1  0  0  0  0
  8 12  1  0  0  0  0
  9 10  2  0  0  0  0
  9 14  1  0  0  0  0
  9 15  1  0  0  0  0
 10 17  1  0  0  0  0
 11 17  1  0  0  0  0
 12 20  1  0  0  0  0
 13 14  2  0  0  0  0
 13 22  1  0  0  0  0
 14 23  1  0  0  0  0
 15 18  1  0  0  0  0
 15 21  2  0  0  0  0
 16 22  1  0  0  0  0
 16 23  1  0  0  0  0
 18 19  1  0  0  0  0
 19 24  1  0  0  0  0
  1 25  1  0  0  0  0
  2 26  1  0  0  0  0
  3 27  1  0  0  0  0
  4 28  1  0  0  0  0
  5 29  1  0  0  0  0
  6 30  1  0  0  0  0
  7 31  1  0  0  0  0
 16 32  1  0  0  0  0
 16 33  1  0  0  0  0
 17 34  1  0  0  0  0
 17 35  1  0  0  0  0
 18 36  1  0  0  0  0
 18 37  1  0  0  0  0
 19 38  1  0  0  0  0
 19 39  1  0  0  0  0
 20 40  1  0  0  0  0
 24 41  1  0  0  0  0
M  END
$$$$
