AVX17680_1
  -OEChem-04011314553D

 57 58  0     1  0  0  0  0  0999 V2000
   -1.8941   -1.5772   -0.8337 C   0  0  0  0  0  0  0  0  0  0  0  0
   -1.8808   -2.5884   -1.7973 C   0  0  0  0  0  0  0  0  0  0  0  0
   -1.7661   -3.2224    0.9565 C   0  0  0  0  0  0  0  0  0  0  0  0
   -1.8370   -1.8923    0.5353 C   0  0  0  0  0  0  0  0  0  0  0  0
   -1.8103   -3.8934   -1.3551 C   0  0  0  0  0  0  0  0  0  0  0  0
   -1.7544   -4.2020   -0.0151 C   0  0  0  0  0  0  0  0  0  0  0  0
   -1.7044   -3.5786    2.3831 C   0  0  0  0  0  0  0  0  0  0  0  0
    0.0450   -1.1043    5.1249 C   0  0  0  0  0  0  0  0  0  0  0  0
   -1.7100   -6.0450   -1.1479 C   0  0  0  0  0  0  0  0  0  0  0  0
    2.1344    1.8340   -0.1843 C   0  0  0  0  0  0  0  0  0  0  0  0
   -1.8541   -0.7635    1.5389 C   0  0  0  0  0  0  0  0  0  0  0  0
   -0.6715   -1.8984    6.2049 C   0  0  0  0  0  0  0  0  0  0  0  0
    1.6349    0.8871    0.8972 C   0  0  0  0  0  0  0  0  0  0  0  0
    0.2596   -2.7622    7.0544 C   0  0  0  0  0  0  0  0  0  0  0  0
   -0.4942   -3.5430    8.1367 C   0  0  0  0  0  0  0  0  0  0  0  0
    0.4688   -4.3787    8.9858 C   0  0  0  0  0  0  0  0  0  0  0  0
    0.1160    0.7067    0.8215 C   0  0  0  0  0  0  0  0  0  0  0  0
   -0.4333    0.4970    3.2759 C   0  0  0  0  0  0  0  0  0  0  0  0
   -0.2249   -5.1702   10.0876 C   0  0  0  0  0  0  0  0  0  0  0  0
   -0.4515   -0.2292    1.9151 C   0  0  1  0  0  0  0  0  0  0  0  0
   -0.8419   -0.3378    4.3827 N   0  0  0  0  0  0  0  0  0  0  0  0
   -1.2076   -6.1184    9.5123 N   0  3  0  0  0  0  0  0  0  0  0  0
   -0.5511   -3.6804    2.9473 O   0  5  0  0  0  0  0  0  0  0  0  0
   -2.8058   -3.7771    3.0207 O   0  0  0  0  0  0  0  0  0  0  0  0
    1.2569   -1.1659    4.9369 O   0  0  0  0  0  0  0  0  0  0  0  0
   -1.7864   -5.0031   -2.1424 O   0  0  0  0  0  0  0  0  0  0  0  0
   -1.6887   -5.5435    0.2043 O   0  0  0  0  0  0  0  0  0  0  0  0
   -1.9487   -0.5392   -1.1532 H   0  0  0  0  0  0  0  0  0  0  0  0
   -1.9246   -2.3497   -2.8539 H   0  0  0  0  0  0  0  0  0  0  0  0
   -2.5775   -6.7048   -1.2637 H   0  0  0  0  0  0  0  0  0  0  0  0
   -0.7982   -6.6284   -1.3202 H   0  0  0  0  0  0  0  0  0  0  0  0
    1.6568    2.8154   -0.0987 H   0  0  0  0  0  0  0  0  0  0  0  0
    3.2184    1.9712   -0.1151 H   0  0  0  0  0  0  0  0  0  0  0  0
    1.9054    1.4308   -1.1757 H   0  0  0  0  0  0  0  0  0  0  0  0
   -2.4817    0.0574    1.1691 H   0  0  0  0  0  0  0  0  0  0  0  0
   -2.3679   -1.1426    2.4302 H   0  0  0  0  0  0  0  0  0  0  0  0
   -1.2400   -1.2121    6.8435 H   0  0  0  0  0  0  0  0  0  0  0  0
   -1.3928   -2.5497    5.6962 H   0  0  0  0  0  0  0  0  0  0  0  0
    2.1322   -0.0827    0.7820 H   0  0  0  0  0  0  0  0  0  0  0  0
    1.9261    1.2914    1.8718 H   0  0  0  0  0  0  0  0  0  0  0  0
    0.7686   -3.4749    6.3939 H   0  0  0  0  0  0  0  0  0  0  0  0
    1.0383   -2.1428    7.5154 H   0  0  0  0  0  0  0  0  0  0  0  0
   -1.2316   -4.2030    7.6638 H   0  0  0  0  0  0  0  0  0  0  0  0
   -1.0469   -2.8465    8.7756 H   0  0  0  0  0  0  0  0  0  0  0  0
    0.9933   -5.0892    8.3351 H   0  0  0  0  0  0  0  0  0  0  0  0
    1.2350   -3.7264    9.4228 H   0  0  0  0  0  0  0  0  0  0  0  0
   -0.1336    0.2916   -0.1636 H   0  0  0  0  0  0  0  0  0  0  0  0
   -0.3676    1.6899    0.8805 H   0  0  0  0  0  0  0  0  0  0  0  0
    0.5763    0.8576    3.5015 H   0  0  0  0  0  0  0  0  0  0  0  0
   -1.0910    1.3719    3.2673 H   0  0  0  0  0  0  0  0  0  0  0  0
    0.4812   -5.7588   10.6806 H   0  0  0  0  0  0  0  0  0  0  0  0
   -0.7864   -4.5043   10.7496 H   0  0  0  0  0  0  0  0  0  0  0  0
    0.2339   -1.0829    2.0058 H   0  0  0  0  0  0  0  0  0  0  0  0
   -1.8269   -0.3647    4.6294 H   0  0  0  0  0  0  0  0  0  0  0  0
   -1.0674   -6.2265    8.5015 H   0  0  0  0  0  0  0  0  0  0  0  0
   -2.1682   -5.7897    9.6633 H   0  0  0  0  0  0  0  0  0  0  0  0
   -1.1209   -7.0458    9.9432 H   0  0  0  0  0  0  0  0  0  0  0  0
  1  2  2  0  0  0  0
  1  4  1  0  0  0  0
  2  5  1  0  0  0  0
  3  4  2  0  0  0  0
  3  6  1  0  0  0  0
  3  7  1  0  0  0  0
  4 11  1  0  0  0  0
  5  6  2  0  0  0  0
  5 26  1  0  0  0  0
  6 27  1  0  0  0  0
  7 23  1  0  0  0  0
  7 24  2  0  0  0  0
  8 12  1  0  0  0  0
  8 21  1  0  0  0  0
  8 25  2  0  0  0  0
  9 26  1  0  0  0  0
  9 27  1  0  0  0  0
 10 13  1  0  0  0  0
 11 20  1  0  0  0  0
 12 14  1  0  0  0  0
 13 17  1  0  0  0  0
 14 15  1  0  0  0  0
 15 16  1  0  0  0  0
 16 19  1  0  0  0  0
 17 20  1  0  0  0  0
 18 20  1  0  0  0  0
 18 21  1  0  0  0  0
 19 22  1  0  0  0  0
  1 28  1  0  0  0  0
  2 29  1  0  0  0  0
  9 30  1  0  0  0  0
  9 31  1  0  0  0  0
 10 32  1  0  0  0  0
 10 33  1  0  0  0  0
 10 34  1  0  0  0  0
 11 35  1  0  0  0  0
 11 36  1  0  0  0  0
 12 37  1  0  0  0  0
 12 38  1  0  0  0  0
 13 39  1  0  0  0  0
 13 40  1  0  0  0  0
 14 41  1  0  0  0  0
 14 42  1  0  0  0  0
 15 43  1  0  0  0  0
 15 44  1  0  0  0  0
 16 45  1  0  0  0  0
 16 46  1  0  0  0  0
 17 47  1  0  0  0  0
 17 48  1  0  0  0  0
 18 49  1  0  0  0  0
 18 50  1  0  0  0  0
 19 51  1  0  0  0  0
 19 52  1  0  0  0  0
 20 53  1  0  0  0  0
 21 54  1  0  0  0  0
 22 55  1  0  0  0  0
 22 56  1  0  0  0  0
 22 57  1  0  0  0  0
M  CHG  2  22   1  23  -1
M  END
$$$$
