AVX17264_0
  -OEChem-04011314523D

 33 34  0     1  0  0  0  0  0999 V2000
   -2.2565    0.5880   -1.9292 C   0  0  0  0  0  0  0  0  0  0  0  0
   -2.0579    1.7358   -1.1650 C   0  0  0  0  0  0  0  0  0  0  0  0
   -1.3611   -0.4799   -1.8368 C   0  0  0  0  0  0  0  0  0  0  0  0
   -0.9633    1.8199   -0.3077 C   0  0  0  0  0  0  0  0  0  0  0  0
   -0.2539   -0.4154   -0.9780 C   0  0  0  0  0  0  0  0  0  0  0  0
   -0.0692    0.7479   -0.2178 C   0  0  0  0  0  0  0  0  0  0  0  0
    0.6982   -1.5791   -0.8836 C   0  0  0  0  0  0  0  0  0  0  0  0
    1.5572   -1.4728    1.4037 C   0  0  0  0  0  0  0  0  0  0  0  0
    1.0230   -0.0984    1.8329 C   0  0  1  0  0  0  0  0  0  0  0  0
    2.0021    2.1486    4.8283 C   0  0  0  0  0  0  0  0  0  0  0  0
    1.8870    0.4811    2.9526 C   0  0  0  0  0  0  0  0  0  0  0  0
    1.1528    1.5897    3.6980 C   0  0  0  0  0  0  0  0  0  0  0  0
    0.7145   -2.1948    0.4452 N   0  0  0  0  0  0  0  0  0  0  0  0
    1.0820    0.8676    0.6839 N   0  3  0  0  0  0  0  0  0  0  0  0
   -3.1100    0.5226   -2.5980 H   0  0  0  0  0  0  0  0  0  0  0  0
   -2.7557    2.5648   -1.2383 H   0  0  0  0  0  0  0  0  0  0  0  0
   -1.5381   -1.3661   -2.4416 H   0  0  0  0  0  0  0  0  0  0  0  0
   -0.8169    2.7208    0.2818 H   0  0  0  0  0  0  0  0  0  0  0  0
    0.3903   -2.3570   -1.5927 H   0  0  0  0  0  0  0  0  0  0  0  0
    1.7026   -1.2762   -1.2053 H   0  0  0  0  0  0  0  0  0  0  0  0
    2.5805   -1.3921    1.0147 H   0  0  0  0  0  0  0  0  0  0  0  0
    1.6299   -2.1088    2.2946 H   0  0  0  0  0  0  0  0  0  0  0  0
   -0.0162   -0.1552    2.1816 H   0  0  0  0  0  0  0  0  0  0  0  0
    2.2765    1.3622    5.5386 H   0  0  0  0  0  0  0  0  0  0  0  0
    1.4487    2.9203    5.3725 H   0  0  0  0  0  0  0  0  0  0  0  0
    2.9220    2.5992    4.4420 H   0  0  0  0  0  0  0  0  0  0  0  0
    2.1559   -0.3242    3.6418 H   0  0  0  0  0  0  0  0  0  0  0  0
    2.8134    0.8669    2.5180 H   0  0  0  0  0  0  0  0  0  0  0  0
    0.8959    2.4007    3.0063 H   0  0  0  0  0  0  0  0  0  0  0  0
    0.2126    1.2055    4.1106 H   0  0  0  0  0  0  0  0  0  0  0  0
   -0.2344   -2.2898    0.8049 H   0  0  0  0  0  0  0  0  0  0  0  0
    1.9436    0.7454    0.1333 H   0  0  0  0  0  0  0  0  0  0  0  0
    1.1089    1.8360    1.0336 H   0  0  0  0  0  0  0  0  0  0  0  0
  1  2  2  0  0  0  0
  1  3  1  0  0  0  0
  2  4  1  0  0  0  0
  3  5  2  0  0  0  0
  4  6  2  0  0  0  0
  5  6  1  0  0  0  0
  5  7  1  0  0  0  0
  6 14  1  0  0  0  0
  7 13  1  0  0  0  0
  8  9  1  0  0  0  0
  8 13  1  0  0  0  0
  9 11  1  0  0  0  0
  9 14  1  0  0  0  0
 10 12  1  0  0  0  0
 11 12  1  0  0  0  0
  1 15  1  0  0  0  0
  2 16  1  0  0  0  0
  3 17  1  0  0  0  0
  4 18  1  0  0  0  0
  7 19  1  0  0  0  0
  7 20  1  0  0  0  0
  8 21  1  0  0  0  0
  8 22  1  0  0  0  0
  9 23  1  0  0  0  0
 10 24  1  0  0  0  0
 10 25  1  0  0  0  0
 10 26  1  0  0  0  0
 11 27  1  0  0  0  0
 11 28  1  0  0  0  0
 12 29  1  0  0  0  0
 12 30  1  0  0  0  0
 13 31  1  0  0  0  0
 14 32  1  0  0  0  0
 14 33  1  0  0  0  0
M  CHG  1  14   1
M  END
$$$$
