AVX17557_0
  -OEChem-04011314543D

 59 62  0     1  0  0  0  0  0999 V2000
    2.0069    1.7310   -0.6805 C   0  0  0  0  0  0  0  0  0  0  0  0
    2.2404    0.4799   -1.2717 C   0  0  0  0  0  0  0  0  0  0  0  0
    0.8190    1.9810    0.0082 C   0  0  0  0  0  0  0  0  0  0  0  0
    1.2891   -0.5394   -1.1834 C   0  0  0  0  0  0  0  0  0  0  0  0
   -2.8161   -3.8512    0.6873 C   0  0  0  0  0  0  0  0  0  0  0  0
   -3.9375   -4.6567    0.4751 C   0  0  0  0  0  0  0  0  0  0  0  0
   -2.1912   -4.0290   -1.6592 C   0  0  0  0  0  0  0  0  0  0  0  0
   -0.1125    0.9601    0.1024 C   0  0  0  0  0  0  0  0  0  0  0  0
    0.1167   -0.2913   -0.4868 C   0  0  0  0  0  0  0  0  0  0  0  0
   -1.9480   -3.5390   -0.3737 C   0  0  0  0  0  0  0  0  0  0  0  0
   -4.1549   -5.1277   -0.8034 C   0  0  0  0  0  0  0  0  0  0  0  0
   -3.3053   -4.8221   -1.8420 C   0  0  0  0  0  0  0  0  0  0  0  0
   -1.2985   -3.7160   -2.7867 C   0  0  0  0  0  0  0  0  0  0  0  0
   -2.0860   -0.9680    3.3526 C   0  0  0  0  0  0  0  0  0  0  0  0
   -1.4594    1.0068    0.7597 C   0  0  0  0  0  0  0  0  0  0  0  0
   -4.8944   -6.0797   -2.6003 C   0  0  0  0  0  0  0  0  0  0  0  0
   -1.0743   -1.1908   -0.2824 C   0  0  2  0  0  0  0  0  0  0  0  0
   -1.7710   -0.4967    0.9214 C   0  0  1  0  0  0  0  0  0  0  0  0
   -0.7528   -2.6669   -0.0948 C   0  0  0  0  0  0  0  0  0  0  0  0
   -1.3228   -1.5000    4.5546 C   0  0  0  0  0  0  0  0  0  0  0  0
   -2.2090   -2.1902    5.5906 C   0  0  0  0  0  0  0  0  0  0  0  0
   -2.9618   -3.3912    5.0075 C   0  0  0  0  0  0  0  0  0  0  0  0
   -3.8590   -4.0452    6.0629 C   0  0  0  0  0  0  0  0  0  0  0  0
   -4.6422   -5.2414    5.5361 C   0  0  0  0  0  0  0  0  0  0  0  0
   -1.3022   -0.9736    2.2078 N   0  0  0  0  0  0  0  0  0  0  0  0
   -3.7226   -6.2986    5.0541 N   0  3  0  0  0  0  0  0  0  0  0  0
   -1.5386   -2.6674   -3.4948 O   0  5  0  0  0  0  0  0  0  0  0  0
   -0.3067   -4.5013   -3.0285 O   0  0  0  0  0  0  0  0  0  0  0  0
   -3.2453   -0.5679    3.4150 O   0  0  0  0  0  0  0  0  0  0  0  0
   -5.1888   -5.9199   -1.1975 O   0  0  0  0  0  0  0  0  0  0  0  0
   -3.7007   -5.3851   -3.0162 O   0  0  0  0  0  0  0  0  0  0  0  0
    2.7566    2.5131   -0.7651 H   0  0  0  0  0  0  0  0  0  0  0  0
    3.1684    0.3057   -1.8097 H   0  0  0  0  0  0  0  0  0  0  0  0
    0.6345    2.9522    0.4544 H   0  0  0  0  0  0  0  0  0  0  0  0
    1.4725   -1.4974   -1.6578 H   0  0  0  0  0  0  0  0  0  0  0  0
   -2.6199   -3.4654    1.6849 H   0  0  0  0  0  0  0  0  0  0  0  0
   -4.6094   -4.8997    1.2904 H   0  0  0  0  0  0  0  0  0  0  0  0
   -1.4342    1.5384    1.7158 H   0  0  0  0  0  0  0  0  0  0  0  0
   -2.1761    1.4849    0.0830 H   0  0  0  0  0  0  0  0  0  0  0  0
   -4.7710   -7.1477   -2.8136 H   0  0  0  0  0  0  0  0  0  0  0  0
   -5.7420   -5.6999   -3.1823 H   0  0  0  0  0  0  0  0  0  0  0  0
   -1.7182   -1.0792   -1.1687 H   0  0  0  0  0  0  0  0  0  0  0  0
   -2.8514   -0.6820    0.9115 H   0  0  0  0  0  0  0  0  0  0  0  0
   -0.3985   -2.8401    0.9281 H   0  0  0  0  0  0  0  0  0  0  0  0
    0.0751   -2.9509   -0.7551 H   0  0  0  0  0  0  0  0  0  0  0  0
   -0.5367   -2.1832    4.2124 H   0  0  0  0  0  0  0  0  0  0  0  0
   -0.8308   -0.6403    5.0259 H   0  0  0  0  0  0  0  0  0  0  0  0
   -1.5726   -2.5375    6.4138 H   0  0  0  0  0  0  0  0  0  0  0  0
   -2.9217   -1.4752    6.0186 H   0  0  0  0  0  0  0  0  0  0  0  0
   -2.2402   -4.1278    4.6338 H   0  0  0  0  0  0  0  0  0  0  0  0
   -3.5653   -3.0679    4.1530 H   0  0  0  0  0  0  0  0  0  0  0  0
   -3.2359   -4.3877    6.8982 H   0  0  0  0  0  0  0  0  0  0  0  0
   -4.5512   -3.2986    6.4715 H   0  0  0  0  0  0  0  0  0  0  0  0
   -5.2754   -5.6921    6.3059 H   0  0  0  0  0  0  0  0  0  0  0  0
   -5.2611   -4.9543    4.6809 H   0  0  0  0  0  0  0  0  0  0  0  0
   -0.3531   -1.3295    2.2743 H   0  0  0  0  0  0  0  0  0  0  0  0
   -2.7633   -6.1276    5.3759 H   0  0  0  0  0  0  0  0  0  0  0  0
   -3.7086   -6.3347    4.0284 H   0  0  0  0  0  0  0  0  0  0  0  0
   -4.0100   -7.2219    5.3976 H   0  0  0  0  0  0  0  0  0  0  0  0
  1  2  1  0  0  0  0
  1  3  2  0  0  0  0
  2  4  2  0  0  0  0
  3  8  1  0  0  0  0
  4  9  1  0  0  0  0
  5  6  2  0  0  0  0
  5 10  1  0  0  0  0
  6 11  1  0  0  0  0
  7 10  2  0  0  0  0
  7 12  1  0  0  0  0
  7 13  1  0  0  0  0
  8  9  2  0  0  0  0
  8 15  1  0  0  0  0
  9 17  1  0  0  0  0
 10 19  1  0  0  0  0
 11 12  2  0  0  0  0
 11 30  1  0  0  0  0
 12 31  1  0  0  0  0
 13 27  1  0  0  0  0
 13 28  2  0  0  0  0
 14 20  1  0  0  0  0
 14 25  1  0  0  0  0
 14 29  2  0  0  0  0
 15 18  1  0  0  0  0
 16 30  1  0  0  0  0
 16 31  1  0  0  0  0
 17 18  1  0  0  0  0
 17 19  1  0  0  0  0
 18 25  1  0  0  0  0
 20 21  1  0  0  0  0
 21 22  1  0  0  0  0
 22 23  1  0  0  0  0
 23 24  1  0  0  0  0
 24 26  1  0  0  0  0
  1 32  1  0  0  0  0
  2 33  1  0  0  0  0
  3 34  1  0  0  0  0
  4 35  1  0  0  0  0
  5 36  1  0  0  0  0
  6 37  1  0  0  0  0
 15 38  1  0  0  0  0
 15 39  1  0  0  0  0
 16 40  1  0  0  0  0
 16 41  1  0  0  0  0
 17 42  1  0  0  0  0
 18 43  1  0  0  0  0
 19 44  1  0  0  0  0
 19 45  1  0  0  0  0
 20 46  1  0  0  0  0
 20 47  1  0  0  0  0
 21 48  1  0  0  0  0
 21 49  1  0  0  0  0
 22 50  1  0  0  0  0
 22 51  1  0  0  0  0
 23 52  1  0  0  0  0
 23 53  1  0  0  0  0
 24 54  1  0  0  0  0
 24 55  1  0  0  0  0
 25 56  1  0  0  0  0
 26 57  1  0  0  0  0
 26 58  1  0  0  0  0
 26 59  1  0  0  0  0
M  CHG  2  26   1  27  -1
M  END
$$$$
