AVX101139_2
  -OEChem-04011314513D

 57 59  0     1  0  0  0  0  0999 V2000
   -0.0250    4.3688   -4.5728 C   0  0  0  0  0  0  0  0  0  0  0  0
    1.1838    4.4621   -3.8831 C   0  0  0  0  0  0  0  0  0  0  0  0
   -1.2167    4.1892   -3.8704 C   0  0  0  0  0  0  0  0  0  0  0  0
    1.2010    4.3757   -2.4910 C   0  0  0  0  0  0  0  0  0  0  0  0
   -1.1995    4.1029   -2.4783 C   0  0  0  0  0  0  0  0  0  0  0  0
    1.0641   -0.2008   -0.2968 C   0  0  0  0  0  0  0  0  0  0  0  0
    1.2161   -1.5505    0.0209 C   0  0  0  0  0  0  0  0  0  0  0  0
    2.6783    0.3814    1.4039 C   0  0  0  0  0  0  0  0  0  0  0  0
    0.0093    4.1962   -1.7886 C   0  0  0  0  0  0  0  0  0  0  0  0
    1.7953    0.7651    0.3947 C   0  0  0  0  0  0  0  0  0  0  0  0
    2.0992   -1.9342    1.0302 C   0  0  0  0  0  0  0  0  0  0  0  0
    2.8303   -0.9683    1.7217 C   0  0  0  0  0  0  0  0  0  0  0  0
    3.4524    1.4011    2.1397 C   0  0  0  0  0  0  0  0  0  0  0  0
    4.2990   -1.8710    4.9430 C   0  0  0  0  0  0  0  0  0  0  0  0
   -2.3857    1.3453    0.7255 C   0  0  0  0  0  0  0  0  0  0  0  0
   -3.7905    1.2214    1.2777 C   0  0  0  0  0  0  0  0  0  0  0  0
   -2.4292    2.1319    2.9348 C   0  0  0  0  0  0  0  0  0  0  0  0
   -1.8160    2.4542    1.5832 C   0  0  1  0  0  0  0  0  0  0  0  0
    1.4532   -4.1773    0.5750 C   0  0  0  0  0  0  0  0  0  0  0  0
    0.0270    4.1030   -0.2912 C   0  0  0  0  0  0  0  0  0  0  0  0
    1.6112    2.2090    0.0311 C   0  0  0  0  0  0  0  0  0  0  0  0
    3.1639   -1.4387    4.0289 C   0  0  0  0  0  0  0  0  0  0  0  0
   -0.3006    2.5132    1.5974 C   0  0  0  0  0  0  0  0  0  0  0  0
    0.1903    2.6883    0.2118 N   0  3  1  0  0  0  0  0  0  0  0  0
    4.6064    1.7421    1.6872 O   0  5  0  0  0  0  0  0  0  0  0  0
    5.2985   -1.0985    4.9585 O   0  5  0  0  0  0  0  0  0  0  0  0
    2.9434    1.9092    3.2053 O   0  0  0  0  0  0  0  0  0  0  0  0
    4.0972   -2.9442    5.5772 O   0  0  0  0  0  0  0  0  0  0  0  0
   -3.7212    1.5638    2.6698 O   0  0  0  0  0  0  0  0  0  0  0  0
    2.2376   -3.2560    1.3299 O   0  0  0  0  0  0  0  0  0  0  0  0
    3.6914   -1.3525    2.7076 O   0  0  0  0  0  0  0  0  0  0  0  0
   -0.0383    4.4373   -5.6566 H   0  0  0  0  0  0  0  0  0  0  0  0
    2.1117    4.6029   -4.4297 H   0  0  0  0  0  0  0  0  0  0  0  0
   -2.1581    4.1177   -4.4070 H   0  0  0  0  0  0  0  0  0  0  0  0
    2.1475    4.4493   -1.9620 H   0  0  0  0  0  0  0  0  0  0  0  0
   -2.1329    3.9629   -1.9394 H   0  0  0  0  0  0  0  0  0  0  0  0
    0.3738    0.0882   -1.0849 H   0  0  0  0  0  0  0  0  0  0  0  0
    0.6439   -2.2981   -0.5217 H   0  0  0  0  0  0  0  0  0  0  0  0
   -1.8372    0.4096    0.8887 H   0  0  0  0  0  0  0  0  0  0  0  0
   -2.3716    1.5664   -0.3454 H   0  0  0  0  0  0  0  0  0  0  0  0
   -4.4712    1.9297    0.7936 H   0  0  0  0  0  0  0  0  0  0  0  0
   -4.1983    0.2129    1.1658 H   0  0  0  0  0  0  0  0  0  0  0  0
   -1.8459    1.3867    3.4870 H   0  0  0  0  0  0  0  0  0  0  0  0
   -2.5444    3.0192    3.5643 H   0  0  0  0  0  0  0  0  0  0  0  0
   -2.2139    3.4143    1.2289 H   0  0  0  0  0  0  0  0  0  0  0  0
    1.6588   -5.1955    0.9142 H   0  0  0  0  0  0  0  0  0  0  0  0
    1.6955   -4.0794   -0.4862 H   0  0  0  0  0  0  0  0  0  0  0  0
    0.3951   -3.9515    0.7275 H   0  0  0  0  0  0  0  0  0  0  0  0
    0.8531    4.6846    0.1319 H   0  0  0  0  0  0  0  0  0  0  0  0
   -0.9048    4.4846    0.1399 H   0  0  0  0  0  0  0  0  0  0  0  0
    2.2425    2.8565    0.6491 H   0  0  0  0  0  0  0  0  0  0  0  0
    1.8732    2.3895   -1.0170 H   0  0  0  0  0  0  0  0  0  0  0  0
    2.7852   -0.4579    4.3323 H   0  0  0  0  0  0  0  0  0  0  0  0
    2.3427   -2.1618    4.0398 H   0  0  0  0  0  0  0  0  0  0  0  0
    0.1332    1.5867    1.9798 H   0  0  0  0  0  0  0  0  0  0  0  0
    0.0619    3.3635    2.1791 H   0  0  0  0  0  0  0  0  0  0  0  0
   -0.3897    2.0974   -0.4099 H   0  0  0  0  0  0  0  0  0  0  0  0
  1  2  2  0  0  0  0
  1  3  1  0  0  0  0
  2  4  1  0  0  0  0
  3  5  2  0  0  0  0
  4  9  2  0  0  0  0
  5  9  1  0  0  0  0
  6  7  1  0  0  0  0
  6 10  2  0  0  0  0
  7 11  2  0  0  0  0
  8 10  1  0  0  0  0
  8 12  2  0  0  0  0
  8 13  1  0  0  0  0
  9 20  1  0  0  0  0
 10 21  1  0  0  0  0
 11 12  1  0  0  0  0
 11 30  1  0  0  0  0
 12 31  1  0  0  0  0
 13 25  1  0  0  0  0
 13 27  2  0  0  0  0
 14 22  1  0  0  0  0
 14 26  1  0  0  0  0
 14 28  2  0  0  0  0
 15 16  1  0  0  0  0
 15 18  1  0  0  0  0
 16 29  1  0  0  0  0
 17 18  1  0  0  0  0
 17 29  1  0  0  0  0
 18 23  1  0  0  0  0
 19 30  1  0  0  0  0
 20 24  1  0  0  0  0
 21 24  1  0  0  0  0
 22 31  1  0  0  0  0
 23 24  1  0  0  0  0
  1 32  1  0  0  0  0
  2 33  1  0  0  0  0
  3 34  1  0  0  0  0
  4 35  1  0  0  0  0
  5 36  1  0  0  0  0
  6 37  1  0  0  0  0
  7 38  1  0  0  0  0
 15 39  1  0  0  0  0
 15 40  1  0  0  0  0
 16 41  1  0  0  0  0
 16 42  1  0  0  0  0
 17 43  1  0  0  0  0
 17 44  1  0  0  0  0
 18 45  1  0  0  0  0
 19 46  1  0  0  0  0
 19 47  1  0  0  0  0
 19 48  1  0  0  0  0
 20 49  1  0  0  0  0
 20 50  1  0  0  0  0
 21 51  1  0  0  0  0
 21 52  1  0  0  0  0
 22 53  1  0  0  0  0
 22 54  1  0  0  0  0
 23 55  1  0  0  0  0
 23 56  1  0  0  0  0
 24 57  1  0  0  0  0
M  CHG  3  24   1  25  -1  26  -1
M  END
$$$$
