AVX17259_0
  -OEChem-04011314523D

 32 34  0     1  0  0  0  0  0999 V2000
    1.9972    0.7311   -0.3782 C   0  0  0  0  0  0  0  0  0  0  0  0
    0.5931    0.8186   -0.3987 C   0  0  0  0  0  0  0  0  0  0  0  0
    1.5771    6.7730    1.5146 C   0  0  0  0  0  0  0  0  0  0  0  0
    1.6416    5.8994    2.6000 C   0  0  0  0  0  0  0  0  0  0  0  0
    2.7884    1.7677   -0.8842 C   0  0  0  0  0  0  0  0  0  0  0  0
    2.2216    6.4503    0.3203 C   0  0  0  0  0  0  0  0  0  0  0  0
   -0.0442    1.9431   -0.9260 C   0  0  0  0  0  0  0  0  0  0  0  0
    2.9953    4.3805    1.2971 C   0  0  0  0  0  0  0  0  0  0  0  0
    2.3507    4.7032    2.4913 C   0  0  0  0  0  0  0  0  0  0  0  0
    2.1510    2.8803   -1.4012 C   0  0  0  0  0  0  0  0  0  0  0  0
    2.9308    5.2541    0.2116 C   0  0  0  0  0  0  0  0  0  0  0  0
    0.7597    2.9514   -1.4186 C   0  0  0  0  0  0  0  0  0  0  0  0
    1.4574    4.9316   -2.3632 C   0  0  0  0  0  0  0  0  0  0  0  0
    2.4194    3.7812    3.6364 C   0  0  0  0  0  0  0  0  0  0  0  0
    2.7241    4.1246   -2.0173 C   0  0  1  0  0  0  0  0  0  0  0  0
    3.6274    4.9056   -1.0784 C   0  0  0  0  0  0  0  0  0  0  0  0
    0.3566    4.1555   -1.9844 N   0  0  0  0  0  0  0  0  0  0  0  0
    3.0805    2.6832    3.5094 O   0  5  0  0  0  0  0  0  0  0  0  0
    1.4382    6.0411   -2.8742 O   0  0  0  0  0  0  0  0  0  0  0  0
    1.8158    4.1023    4.7279 O   0  0  0  0  0  0  0  0  0  0  0  0
    2.4718   -0.1550    0.0350 H   0  0  0  0  0  0  0  0  0  0  0  0
   -0.0001    0.0002    0.0004 H   0  0  0  0  0  0  0  0  0  0  0  0
    1.0246    7.7042    1.5995 H   0  0  0  0  0  0  0  0  0  0  0  0
    1.1354    6.1602    3.5259 H   0  0  0  0  0  0  0  0  0  0  0  0
    3.8701    1.6925   -0.8700 H   0  0  0  0  0  0  0  0  0  0  0  0
    2.1658    7.1369   -0.5202 H   0  0  0  0  0  0  0  0  0  0  0  0
   -1.1257    2.0131   -0.9441 H   0  0  0  0  0  0  0  0  0  0  0  0
    3.5485    3.4482    1.2108 H   0  0  0  0  0  0  0  0  0  0  0  0
    3.2367    3.8746   -2.9528 H   0  0  0  0  0  0  0  0  0  0  0  0
    3.9711    5.8242   -1.5708 H   0  0  0  0  0  0  0  0  0  0  0  0
    4.5322    4.3233   -0.8622 H   0  0  0  0  0  0  0  0  0  0  0  0
   -0.6096    4.4350   -2.1067 H   0  0  0  0  0  0  0  0  0  0  0  0
  1  2  2  0  0  0  0
  1  5  1  0  0  0  0
  2  7  1  0  0  0  0
  3  4  2  0  0  0  0
  3  6  1  0  0  0  0
  4  9  1  0  0  0  0
  5 10  2  0  0  0  0
  6 11  2  0  0  0  0
  7 12  2  0  0  0  0
  8  9  2  0  0  0  0
  8 11  1  0  0  0  0
  9 14  1  0  0  0  0
 10 12  1  0  0  0  0
 10 15  1  0  0  0  0
 11 16  1  0  0  0  0
 12 17  1  0  0  0  0
 13 15  1  0  0  0  0
 13 17  1  0  0  0  0
 13 19  2  0  0  0  0
 14 18  1  0  0  0  0
 14 20  2  0  0  0  0
 15 16  1  0  0  0  0
  1 21  1  0  0  0  0
  2 22  1  0  0  0  0
  3 23  1  0  0  0  0
  4 24  1  0  0  0  0
  5 25  1  0  0  0  0
  6 26  1  0  0  0  0
  7 27  1  0  0  0  0
  8 28  1  0  0  0  0
 15 29  1  0  0  0  0
 16 30  1  0  0  0  0
 16 31  1  0  0  0  0
 17 32  1  0  0  0  0
M  CHG  1  18  -1
M  END
$$$$
