AVX15988_0
  -OEChem-04011314513D

 19 20  0     0  0  0  0  0  0999 V2000
   -0.6742   -1.4085   -1.4795 C   0  0  0  0  0  0  0  0  0  0  0  0
    0.2175   -0.4688   -0.9561 C   0  0  0  0  0  0  0  0  0  0  0  0
    1.6756   -0.7186   -2.8730 C   0  0  0  0  0  0  0  0  0  0  0  0
    0.7916   -1.6713   -3.4245 C   0  0  0  0  0  0  0  0  0  0  0  0
   -0.3685   -1.9990   -2.7163 C   0  0  0  0  0  0  0  0  0  0  0  0
    1.3776   -0.1269   -1.6421 C   0  0  0  0  0  0  0  0  0  0  0  0
   -0.0585   -3.1484   -4.8253 C   0  0  0  0  0  0  0  0  0  0  0  0
    2.9294   -0.3418   -3.6025 C   0  0  0  0  0  0  0  0  0  0  0  0
    0.9552   -2.3379   -4.6301 N   0  0  0  0  0  0  0  0  0  0  0  0
   -0.1986   -3.9484   -5.9158 N   0  0  0  0  0  0  0  0  0  0  0  0
   -1.2595   -3.1758   -3.6075 S   0  0  0  0  0  0  0  0  0  0  0  0
    2.4317    1.0460   -0.9341 Cl  0  0  0  0  0  0  0  0  0  0  0  0
   -1.5776   -1.6709   -0.9377 H   0  0  0  0  0  0  0  0  0  0  0  0
   -0.0164   -0.0085    0.0015 H   0  0  0  0  0  0  0  0  0  0  0  0
    2.7351    0.5038   -4.2693 H   0  0  0  0  0  0  0  0  0  0  0  0
    3.7221   -0.0638   -2.9000 H   0  0  0  0  0  0  0  0  0  0  0  0
    3.3038   -1.1823   -4.1966 H   0  0  0  0  0  0  0  0  0  0  0  0
    0.4753   -3.9282   -6.6887 H   0  0  0  0  0  0  0  0  0  0  0  0
   -1.0306   -4.5326   -6.0515 H   0  0  0  0  0  0  0  0  0  0  0  0
  1  2  1  0  0  0  0
  1  5  2  0  0  0  0
  2  6  2  0  0  0  0
  3  4  2  0  0  0  0
  3  6  1  0  0  0  0
  3  8  1  0  0  0  0
  4  5  1  0  0  0  0
  4  9  1  0  0  0  0
  5 11  1  0  0  0  0
  6 12  1  0  0  0  0
  7  9  2  0  0  0  0
  7 10  1  0  0  0  0
  7 11  1  0  0  0  0
  1 13  1  0  0  0  0
  2 14  1  0  0  0  0
  8 15  1  0  0  0  0
  8 16  1  0  0  0  0
  8 17  1  0  0  0  0
 10 18  1  0  0  0  0
 10 19  1  0  0  0  0
M  END
$$$$
