AVX17544_0
  -OEChem-04011314533D

 38 40  0     1  0  0  0  0  0999 V2000
    1.4544    0.6258    1.5247 C   0  0  0  0  0  0  0  0  0  0  0  0
    1.3638   -0.5924    2.2034 C   0  0  0  0  0  0  0  0  0  0  0  0
   -0.3634   -0.0266    0.0399 C   0  0  0  0  0  0  0  0  0  0  0  0
    0.5943    0.9261    0.4454 C   0  0  0  0  0  0  0  0  0  0  0  0
    0.4045   -1.4920    1.7881 C   0  0  0  0  0  0  0  0  0  0  0  0
   -0.4418   -1.2210    0.7372 C   0  0  0  0  0  0  0  0  0  0  0  0
   -1.2904    0.2287   -1.0875 C   0  0  0  0  0  0  0  0  0  0  0  0
    0.6928    2.2689   -0.2353 C   0  0  0  0  0  0  0  0  0  0  0  0
    0.6555    1.0129   -2.4843 C   0  0  0  0  0  0  0  0  0  0  0  0
   -0.9023   -3.1930    1.5127 C   0  0  0  0  0  0  0  0  0  0  0  0
    1.2254    2.1893   -1.6775 C   0  0  1  0  0  0  0  0  0  0  0  0
    3.0928    4.6209   -1.5384 C   0  0  0  0  0  0  0  0  0  0  0  0
    1.2100    6.0078   -2.4298 C   0  0  0  0  0  0  0  0  0  0  0  0
    0.9618    3.5165   -2.3950 C   0  0  0  0  0  0  0  0  0  0  0  0
    1.5733    4.7267   -1.6754 C   0  0  0  0  0  0  0  0  0  0  0  0
   -0.7592    0.7861   -2.2389 N   0  0  0  0  0  0  0  0  0  0  0  0
   -2.4785   -0.0578   -0.9629 O   0  0  0  0  0  0  0  0  0  0  0  0
    0.1801   -2.7180    2.3358 O   0  0  0  0  0  0  0  0  0  0  0  0
   -1.2968   -2.2533    0.4943 O   0  0  0  0  0  0  0  0  0  0  0  0
    2.2070    1.3455    1.8387 H   0  0  0  0  0  0  0  0  0  0  0  0
    2.0321   -0.8182    3.0268 H   0  0  0  0  0  0  0  0  0  0  0  0
   -0.2765    2.7796   -0.2211 H   0  0  0  0  0  0  0  0  0  0  0  0
    1.3557    2.9036    0.3656 H   0  0  0  0  0  0  0  0  0  0  0  0
    0.7897    1.1664   -3.5626 H   0  0  0  0  0  0  0  0  0  0  0  0
    1.1840    0.0886   -2.2231 H   0  0  0  0  0  0  0  0  0  0  0  0
   -0.5927   -4.1264    1.0287 H   0  0  0  0  0  0  0  0  0  0  0  0
   -1.7669   -3.3992    2.1539 H   0  0  0  0  0  0  0  0  0  0  0  0
    2.3103    2.0708   -1.6026 H   0  0  0  0  0  0  0  0  0  0  0  0
    3.5758    4.5488   -2.5186 H   0  0  0  0  0  0  0  0  0  0  0  0
    3.3797    3.7434   -0.9510 H   0  0  0  0  0  0  0  0  0  0  0  0
    3.4983    5.5002   -1.0261 H   0  0  0  0  0  0  0  0  0  0  0  0
    1.6146    5.9982   -3.4477 H   0  0  0  0  0  0  0  0  0  0  0  0
    1.6076    6.8890   -1.9152 H   0  0  0  0  0  0  0  0  0  0  0  0
    0.1232    6.1248   -2.4978 H   0  0  0  0  0  0  0  0  0  0  0  0
    1.3458    3.4431   -3.4167 H   0  0  0  0  0  0  0  0  0  0  0  0
   -0.1225    3.6446   -2.4674 H   0  0  0  0  0  0  0  0  0  0  0  0
    1.1422    4.7960   -0.6686 H   0  0  0  0  0  0  0  0  0  0  0  0
   -1.4095    1.0580   -2.9697 H   0  0  0  0  0  0  0  0  0  0  0  0
  1  2  2  0  0  0  0
  1  4  1  0  0  0  0
  2  5  1  0  0  0  0
  3  4  2  0  0  0  0
  3  6  1  0  0  0  0
  3  7  1  0  0  0  0
  4  8  1  0  0  0  0
  5  6  2  0  0  0  0
  5 18  1  0  0  0  0
  6 19  1  0  0  0  0
  7 16  1  0  0  0  0
  7 17  2  0  0  0  0
  8 11  1  0  0  0  0
  9 11  1  0  0  0  0
  9 16  1  0  0  0  0
 10 18  1  0  0  0  0
 10 19  1  0  0  0  0
 11 14  1  0  0  0  0
 12 15  1  0  0  0  0
 13 15  1  0  0  0  0
 14 15  1  0  0  0  0
  1 20  1  0  0  0  0
  2 21  1  0  0  0  0
  8 22  1  0  0  0  0
  8 23  1  0  0  0  0
  9 24  1  0  0  0  0
  9 25  1  0  0  0  0
 10 26  1  0  0  0  0
 10 27  1  0  0  0  0
 11 28  1  0  0  0  0
 12 29  1  0  0  0  0
 12 30  1  0  0  0  0
 12 31  1  0  0  0  0
 13 32  1  0  0  0  0
 13 33  1  0  0  0  0
 13 34  1  0  0  0  0
 14 35  1  0  0  0  0
 14 36  1  0  0  0  0
 15 37  1  0  0  0  0
 16 38  1  0  0  0  0
M  END
$$$$
