AVX17734_1
  -OEChem-04011314553D

 67 70  0     1  0  0  0  0  0999 V2000
   -0.4718    5.3693    9.9443 C   0  0  0  0  0  0  0  0  0  0  0  0
    3.6112    0.2131    8.2606 C   0  0  0  0  0  0  0  0  0  0  0  0
   -1.2962    4.4419    9.3073 C   0  0  0  0  0  0  0  0  0  0  0  0
    0.4149    6.1438    9.1962 C   0  0  0  0  0  0  0  0  0  0  0  0
    3.9730    1.4501    7.7272 C   0  0  0  0  0  0  0  0  0  0  0  0
    2.5968   -0.5346    7.6625 C   0  0  0  0  0  0  0  0  0  0  0  0
   -1.2338    4.2888    7.9223 C   0  0  0  0  0  0  0  0  0  0  0  0
    0.4773    5.9908    7.8112 C   0  0  0  0  0  0  0  0  0  0  0  0
    3.3204    1.9395    6.5957 C   0  0  0  0  0  0  0  0  0  0  0  0
    1.9442   -0.0452    6.5311 C   0  0  0  0  0  0  0  0  0  0  0  0
    2.6984   -0.1554   -0.8335 C   0  0  0  0  0  0  0  0  0  0  0  0
    2.4898    0.5064   -2.0437 C   0  0  0  0  0  0  0  0  0  0  0  0
    0.4110   -0.9383   -0.8600 C   0  0  0  0  0  0  0  0  0  0  0  0
   -0.3471    5.0633    7.1742 C   0  0  0  0  0  0  0  0  0  0  0  0
    2.3059    1.1919    5.9976 C   0  0  0  0  0  0  0  0  0  0  0  0
    1.6588   -0.8721   -0.2397 C   0  0  0  0  0  0  0  0  0  0  0  0
    1.2382    0.4521   -2.6575 C   0  0  0  0  0  0  0  0  0  0  0  0
    0.2058   -0.2881   -2.0772 C   0  0  0  0  0  0  0  0  0  0  0  0
   -0.6844   -1.7059   -0.2329 C   0  0  0  0  0  0  0  0  0  0  0  0
    0.3774    2.5560    5.1401 C   0  0  0  0  0  0  0  0  0  0  0  0
    0.2955    3.7746   -7.1899 C   0  0  0  0  0  0  0  0  0  0  0  0
    1.9676    0.1572    2.8693 C   0  0  0  0  0  0  0  0  0  0  0  0
   -1.0304   -0.0109   -4.0227 C   0  0  0  0  0  0  0  0  0  0  0  0
   -0.2903    1.3099   -4.1877 C   0  0  2  0  0  0  0  0  0  0  0  0
   -0.2793    4.8988    5.6834 C   0  0  0  0  0  0  0  0  0  0  0  0
    1.9131   -1.5618    1.0613 C   0  0  0  0  0  0  0  0  0  0  0  0
    0.3150    3.1551   -5.7876 C   0  0  0  0  0  0  0  0  0  0  0  0
   -0.3416    1.7973   -5.6283 C   0  0  0  0  0  0  0  0  0  0  0  0
    1.5984    1.7215    4.7721 C   0  0  2  0  0  0  0  0  0  0  0  0
    0.6892    3.8998    5.2929 N   0  0  0  0  0  0  0  0  0  0  0  0
    1.3210   -0.8638    2.1728 N   0  0  0  0  0  0  0  0  0  0  0  0
    1.1697    0.6573    3.8953 N   0  0  0  0  0  0  0  0  0  0  0  0
   -0.8128   -2.9493   -0.5320 O   0  5  0  0  0  0  0  0  0  0  0  0
    0.8451    4.9034   -7.3139 O   0  5  0  0  0  0  0  0  0  0  0  0
   -1.4672   -1.1009    0.5876 O   0  0  0  0  0  0  0  0  0  0  0  0
   -0.7367    2.0662    5.3150 O   0  0  0  0  0  0  0  0  0  0  0  0
   -0.2683    3.0571   -8.0657 O   0  0  0  0  0  0  0  0  0  0  0  0
    3.0991    0.5648    2.6098 O   0  0  0  0  0  0  0  0  0  0  0  0
   -1.0342   -0.4070   -2.6475 O   0  0  0  0  0  0  0  0  0  0  0  0
    1.0891    1.1390   -3.8334 O   0  0  0  0  0  0  0  0  0  0  0  0
   -0.5214    5.4893   11.0226 H   0  0  0  0  0  0  0  0  0  0  0  0
    4.1204   -0.1684    9.1408 H   0  0  0  0  0  0  0  0  0  0  0  0
   -1.9875    3.8395    9.8895 H   0  0  0  0  0  0  0  0  0  0  0  0
    1.0562    6.8668    9.6917 H   0  0  0  0  0  0  0  0  0  0  0  0
    4.7636    2.0319    8.1921 H   0  0  0  0  0  0  0  0  0  0  0  0
    2.3156   -1.4982    8.0769 H   0  0  0  0  0  0  0  0  0  0  0  0
   -1.8798    3.5635    7.4346 H   0  0  0  0  0  0  0  0  0  0  0  0
    1.1713    6.5984    7.2365 H   0  0  0  0  0  0  0  0  0  0  0  0
    3.6088    2.9044    6.1871 H   0  0  0  0  0  0  0  0  0  0  0  0
    1.1549   -0.6345    6.0719 H   0  0  0  0  0  0  0  0  0  0  0  0
    3.6743   -0.1024   -0.3581 H   0  0  0  0  0  0  0  0  0  0  0  0
    3.3018    1.0714   -2.4932 H   0  0  0  0  0  0  0  0  0  0  0  0
   -2.0746    0.0878   -4.3377 H   0  0  0  0  0  0  0  0  0  0  0  0
   -0.5716   -0.8142   -4.6135 H   0  0  0  0  0  0  0  0  0  0  0  0
   -0.7167    2.0789   -3.5292 H   0  0  0  0  0  0  0  0  0  0  0  0
   -1.2539    4.5983    5.2834 H   0  0  0  0  0  0  0  0  0  0  0  0
   -0.0042    5.8402    5.1963 H   0  0  0  0  0  0  0  0  0  0  0  0
    1.5038   -2.5806    1.0529 H   0  0  0  0  0  0  0  0  0  0  0  0
    2.9882   -1.6512    1.2633 H   0  0  0  0  0  0  0  0  0  0  0  0
   -0.2154    3.8603   -5.1353 H   0  0  0  0  0  0  0  0  0  0  0  0
    1.3545    3.1146   -5.4385 H   0  0  0  0  0  0  0  0  0  0  0  0
    0.1262    1.0439   -6.2597 H   0  0  0  0  0  0  0  0  0  0  0  0
   -1.3929    1.8615   -5.9078 H   0  0  0  0  0  0  0  0  0  0  0  0
    2.2797    2.3355    4.1708 H   0  0  0  0  0  0  0  0  0  0  0  0
    1.6415    4.2118    5.1273 H   0  0  0  0  0  0  0  0  0  0  0  0
    0.3830   -1.1289    2.4651 H   0  0  0  0  0  0  0  0  0  0  0  0
    0.2295    0.2908    4.0064 H   0  0  0  0  0  0  0  0  0  0  0  0
  1  3  2  0  0  0  0
  1  4  1  0  0  0  0
  2  5  2  0  0  0  0
  2  6  1  0  0  0  0
  3  7  1  0  0  0  0
  4  8  2  0  0  0  0
  5  9  1  0  0  0  0
  6 10  2  0  0  0  0
  7 14  2  0  0  0  0
  8 14  1  0  0  0  0
  9 15  2  0  0  0  0
 10 15  1  0  0  0  0
 11 12  2  0  0  0  0
 11 16  1  0  0  0  0
 12 17  1  0  0  0  0
 13 16  2  0  0  0  0
 13 18  1  0  0  0  0
 13 19  1  0  0  0  0
 14 25  1  0  0  0  0
 15 29  1  0  0  0  0
 16 26  1  0  0  0  0
 17 18  2  0  0  0  0
 17 40  1  0  0  0  0
 18 39  1  0  0  0  0
 19 33  1  0  0  0  0
 19 35  2  0  0  0  0
 20 29  1  0  0  0  0
 20 30  1  0  0  0  0
 20 36  2  0  0  0  0
 21 27  1  0  0  0  0
 21 34  1  0  0  0  0
 21 37  2  0  0  0  0
 22 31  1  0  0  0  0
 22 32  1  0  0  0  0
 22 38  2  0  0  0  0
 23 24  1  0  0  0  0
 23 39  1  0  0  0  0
 24 28  1  0  0  0  0
 24 40  1  0  0  0  0
 25 30  1  0  0  0  0
 26 31  1  0  0  0  0
 27 28  1  0  0  0  0
 29 32  1  0  0  0  0
  1 41  1  0  0  0  0
  2 42  1  0  0  0  0
  3 43  1  0  0  0  0
  4 44  1  0  0  0  0
  5 45  1  0  0  0  0
  6 46  1  0  0  0  0
  7 47  1  0  0  0  0
  8 48  1  0  0  0  0
  9 49  1  0  0  0  0
 10 50  1  0  0  0  0
 11 51  1  0  0  0  0
 12 52  1  0  0  0  0
 23 53  1  0  0  0  0
 23 54  1  0  0  0  0
 24 55  1  0  0  0  0
 25 56  1  0  0  0  0
 25 57  1  0  0  0  0
 26 58  1  0  0  0  0
 26 59  1  0  0  0  0
 27 60  1  0  0  0  0
 27 61  1  0  0  0  0
 28 62  1  0  0  0  0
 28 63  1  0  0  0  0
 29 64  1  0  0  0  0
 30 65  1  0  0  0  0
 31 66  1  0  0  0  0
 32 67  1  0  0  0  0
M  CHG  2  33  -1  34  -1
M  END
$$$$
