AVX17628_0
  -OEChem-04011314553D

 56 59  0     1  0  0  0  0  0999 V2000
   -4.5246   -8.7797    3.9966 C   0  0  0  0  0  0  0  0  0  0  0  0
   -3.8644   -2.0415    4.5000 C   0  0  0  0  0  0  0  0  0  0  0  0
   -3.3308   -8.4783    3.3411 C   0  0  0  0  0  0  0  0  0  0  0  0
   -5.7463   -8.4833    3.3921 C   0  0  0  0  0  0  0  0  0  0  0  0
   -5.0294   -2.4741    3.8664 C   0  0  0  0  0  0  0  0  0  0  0  0
   -2.6614   -1.9998    3.7951 C   0  0  0  0  0  0  0  0  0  0  0  0
   -3.3586   -7.8805    2.0812 C   0  0  0  0  0  0  0  0  0  0  0  0
   -5.7741   -7.8854    2.1321 C   0  0  0  0  0  0  0  0  0  0  0  0
   -4.9913   -2.8651    2.5280 C   0  0  0  0  0  0  0  0  0  0  0  0
   -2.6234   -2.3908    2.4567 C   0  0  0  0  0  0  0  0  0  0  0  0
   -3.5763    0.5873   -4.2587 C   0  0  0  0  0  0  0  0  0  0  0  0
   -3.9885    0.4081   -5.5814 C   0  0  0  0  0  0  0  0  0  0  0  0
   -1.3968   -0.3738   -4.7627 C   0  0  0  0  0  0  0  0  0  0  0  0
   -4.5803   -7.5840    1.4767 C   0  0  0  0  0  0  0  0  0  0  0  0
   -3.7884   -2.8234    1.8231 C   0  0  0  0  0  0  0  0  0  0  0  0
   -2.2878    0.1986   -3.8517 C   0  0  0  0  0  0  0  0  0  0  0  0
   -3.0896   -0.1594   -6.4609 C   0  0  0  0  0  0  0  0  0  0  0  0
   -1.8284   -0.5397   -6.0626 C   0  0  0  0  0  0  0  0  0  0  0  0
   -0.0426   -0.7881   -4.3620 C   0  0  0  0  0  0  0  0  0  0  0  0
   -3.4526   -4.7353    0.2270 C   0  0  0  0  0  0  0  0  0  0  0  0
   -3.0267   -1.3167   -1.0266 C   0  0  0  0  0  0  0  0  0  0  0  0
   -2.0503   -0.9902   -8.1672 C   0  0  0  0  0  0  0  0  0  0  0  0
   -4.6109   -6.9403    0.1206 C   0  0  0  0  0  0  0  0  0  0  0  0
   -1.8931    0.4108   -2.4256 C   0  0  0  0  0  0  0  0  0  0  0  0
   -3.7464   -3.2470    0.3733 C   0  0  2  0  0  0  0  0  0  0  0  0
   -4.6122   -5.4977    0.2067 N   0  0  0  0  0  0  0  0  0  0  0  0
   -1.8958   -0.8156   -1.6718 N   0  0  0  0  0  0  0  0  0  0  0  0
   -2.7504   -2.5151   -0.3733 N   0  0  0  0  0  0  0  0  0  0  0  0
    0.9192    0.0633   -4.4555 O   0  5  0  0  0  0  0  0  0  0  0  0
    0.1365   -1.9886   -3.9314 O   0  0  0  0  0  0  0  0  0  0  0  0
   -2.3104   -5.1873    0.1752 O   0  0  0  0  0  0  0  0  0  0  0  0
   -4.1286   -0.7696   -1.0345 O   0  0  0  0  0  0  0  0  0  0  0  0
   -3.3123   -0.4092   -7.7799 O   0  0  0  0  0  0  0  0  0  0  0  0
   -1.1038   -1.0756   -7.0823 O   0  0  0  0  0  0  0  0  0  0  0  0
   -4.5028   -9.2464    4.9771 H   0  0  0  0  0  0  0  0  0  0  0  0
   -3.8945   -1.7358    5.5417 H   0  0  0  0  0  0  0  0  0  0  0  0
   -2.3795   -8.7101    3.8112 H   0  0  0  0  0  0  0  0  0  0  0  0
   -6.6759   -8.7187    3.9016 H   0  0  0  0  0  0  0  0  0  0  0  0
   -5.9663   -2.5056    4.4148 H   0  0  0  0  0  0  0  0  0  0  0  0
   -1.7545   -1.6620    4.2877 H   0  0  0  0  0  0  0  0  0  0  0  0
   -2.4235   -7.6491    1.5780 H   0  0  0  0  0  0  0  0  0  0  0  0
   -6.7305   -7.6580    1.6689 H   0  0  0  0  0  0  0  0  0  0  0  0
   -5.9039   -3.2009    2.0426 H   0  0  0  0  0  0  0  0  0  0  0  0
   -1.6816   -2.3551    1.9155 H   0  0  0  0  0  0  0  0  0  0  0  0
   -4.2638    1.0325   -3.5434 H   0  0  0  0  0  0  0  0  0  0  0  0
   -4.9810    0.7064   -5.8993 H   0  0  0  0  0  0  0  0  0  0  0  0
   -2.2327   -1.9995   -8.5538 H   0  0  0  0  0  0  0  0  0  0  0  0
   -1.6138   -0.3805   -8.9666 H   0  0  0  0  0  0  0  0  0  0  0  0
   -3.7390   -7.2422   -0.4699 H   0  0  0  0  0  0  0  0  0  0  0  0
   -5.5027   -7.2432   -0.4381 H   0  0  0  0  0  0  0  0  0  0  0  0
   -0.8854    0.8410   -2.3570 H   0  0  0  0  0  0  0  0  0  0  0  0
   -2.5739    1.1091   -1.9223 H   0  0  0  0  0  0  0  0  0  0  0  0
   -4.7002   -3.0235   -0.1197 H   0  0  0  0  0  0  0  0  0  0  0  0
   -5.5142   -5.0333    0.2556 H   0  0  0  0  0  0  0  0  0  0  0  0
   -1.0286   -1.3440   -1.6061 H   0  0  0  0  0  0  0  0  0  0  0  0
   -1.8221   -2.9166   -0.4602 H   0  0  0  0  0  0  0  0  0  0  0  0
  1  3  2  0  0  0  0
  1  4  1  0  0  0  0
  2  5  2  0  0  0  0
  2  6  1  0  0  0  0
  3  7  1  0  0  0  0
  4  8  2  0  0  0  0
  5  9  1  0  0  0  0
  6 10  2  0  0  0  0
  7 14  2  0  0  0  0
  8 14  1  0  0  0  0
  9 15  2  0  0  0  0
 10 15  1  0  0  0  0
 11 12  1  0  0  0  0
 11 16  2  0  0  0  0
 12 17  2  0  0  0  0
 13 16  1  0  0  0  0
 13 18  2  0  0  0  0
 13 19  1  0  0  0  0
 14 23  1  0  0  0  0
 15 25  1  0  0  0  0
 16 24  1  0  0  0  0
 17 18  1  0  0  0  0
 17 33  1  0  0  0  0
 18 34  1  0  0  0  0
 19 29  1  0  0  0  0
 19 30  2  0  0  0  0
 20 25  1  0  0  0  0
 20 26  1  0  0  0  0
 20 31  2  0  0  0  0
 21 27  1  0  0  0  0
 21 28  1  0  0  0  0
 21 32  2  0  0  0  0
 22 33  1  0  0  0  0
 22 34  1  0  0  0  0
 23 26  1  0  0  0  0
 24 27  1  0  0  0  0
 25 28  1  0  0  0  0
  1 35  1  0  0  0  0
  2 36  1  0  0  0  0
  3 37  1  0  0  0  0
  4 38  1  0  0  0  0
  5 39  1  0  0  0  0
  6 40  1  0  0  0  0
  7 41  1  0  0  0  0
  8 42  1  0  0  0  0
  9 43  1  0  0  0  0
 10 44  1  0  0  0  0
 11 45  1  0  0  0  0
 12 46  1  0  0  0  0
 22 47  1  0  0  0  0
 22 48  1  0  0  0  0
 23 49  1  0  0  0  0
 23 50  1  0  0  0  0
 24 51  1  0  0  0  0
 24 52  1  0  0  0  0
 25 53  1  0  0  0  0
 26 54  1  0  0  0  0
 27 55  1  0  0  0  0
 28 56  1  0  0  0  0
M  CHG  1  29  -1
M  END
$$$$
