AVX17687_0
  -OEChem-04011314553D

 58 62  0     1  0  0  0  0  0999 V2000
   -0.9129    0.8768    2.8543 C   0  0  0  0  0  0  0  0  0  0  0  0
   -1.8109    1.5847    2.0580 C   0  0  0  0  0  0  0  0  0  0  0  0
    0.1514    0.1930    2.2689 C   0  0  0  0  0  0  0  0  0  0  0  0
   -1.6448    1.6171    0.6725 C   0  0  0  0  0  0  0  0  0  0  0  0
   -2.6731   -2.7598   -3.4841 C   0  0  0  0  0  0  0  0  0  0  0  0
    2.4406   -2.1887   -4.0565 C   0  0  0  0  0  0  0  0  0  0  0  0
    2.7251    0.0375   -3.1620 C   0  0  0  0  0  0  0  0  0  0  0  0
   -2.8317   -3.6606   -4.5400 C   0  0  0  0  0  0  0  0  0  0  0  0
    2.5749   -1.6859   -5.3506 C   0  0  0  0  0  0  0  0  0  0  0  0
    2.8594    0.5403   -4.4561 C   0  0  0  0  0  0  0  0  0  0  0  0
    0.3121    0.2117    0.8783 C   0  0  0  0  0  0  0  0  0  0  0  0
   -1.8970   -1.0341   -5.0163 C   0  0  0  0  0  0  0  0  0  0  0  0
   -0.5790    0.9389    0.0662 C   0  0  0  0  0  0  0  0  0  0  0  0
    2.5156   -1.3270   -2.9621 C   0  0  0  0  0  0  0  0  0  0  0  0
   -2.2086   -1.4541   -3.7209 C   0  0  0  0  0  0  0  0  0  0  0  0
   -2.5170   -3.2209   -5.8094 C   0  0  0  0  0  0  0  0  0  0  0  0
   -2.0623   -1.9429   -6.0413 C   0  0  0  0  0  0  0  0  0  0  0  0
    2.7844   -0.3214   -5.5504 C   0  0  0  0  0  0  0  0  0  0  0  0
    1.4688   -0.5195    0.3002 C   0  0  0  0  0  0  0  0  0  0  0  0
   -1.4100    0.3273   -5.2907 C   0  0  0  0  0  0  0  0  0  0  0  0
   -0.4028    1.0007   -1.4264 C   0  0  0  0  0  0  0  0  0  0  0  0
   -0.0811   -1.5198   -1.4068 C   0  0  0  0  0  0  0  0  0  0  0  0
   -2.1596   -2.9919   -7.9312 C   0  0  0  0  0  0  0  0  0  0  0  0
    2.8309   -0.7682   -7.8858 C   0  0  0  0  0  0  0  0  0  0  0  0
    2.3717   -1.8681   -1.5691 C   0  0  0  0  0  0  0  0  0  0  0  0
   -2.0549   -0.5234   -2.5542 C   0  0  0  0  0  0  0  0  0  0  0  0
    1.2500   -1.2662   -0.8644 N   0  0  0  0  0  0  0  0  0  0  0  0
   -0.6200   -0.3174   -2.1491 N   0  3  1  0  0  0  0  0  0  0  0  0
   -2.2682    1.2525   -5.5483 O   0  5  0  0  0  0  0  0  0  0  0  0
    2.5525   -0.4087    0.8716 O   0  0  0  0  0  0  0  0  0  0  0  0
   -0.1415    0.5490   -5.2646 O   0  0  0  0  0  0  0  0  0  0  0  0
   -2.6085   -3.9524   -6.9533 O   0  0  0  0  0  0  0  0  0  0  0  0
   -1.8119   -1.7143   -7.3592 O   0  0  0  0  0  0  0  0  0  0  0  0
    2.9167    0.1688   -6.8132 O   0  0  0  0  0  0  0  0  0  0  0  0
   -1.0430    0.8573    3.9324 H   0  0  0  0  0  0  0  0  0  0  0  0
   -2.6399    2.1159    2.5166 H   0  0  0  0  0  0  0  0  0  0  0  0
    0.8393   -0.3577    2.9052 H   0  0  0  0  0  0  0  0  0  0  0  0
   -2.3530    2.1803    0.0696 H   0  0  0  0  0  0  0  0  0  0  0  0
   -2.9139   -3.0787   -2.4728 H   0  0  0  0  0  0  0  0  0  0  0  0
    2.2776   -3.2531   -3.9101 H   0  0  0  0  0  0  0  0  0  0  0  0
    2.7848    0.7164   -2.3152 H   0  0  0  0  0  0  0  0  0  0  0  0
   -3.1897   -4.6681   -4.3618 H   0  0  0  0  0  0  0  0  0  0  0  0
    2.5158   -2.3624   -6.1991 H   0  0  0  0  0  0  0  0  0  0  0  0
    3.0227    1.6040   -4.6051 H   0  0  0  0  0  0  0  0  0  0  0  0
   -1.0682    1.7394   -1.8886 H   0  0  0  0  0  0  0  0  0  0  0  0
    0.6193    1.3208   -1.6654 H   0  0  0  0  0  0  0  0  0  0  0  0
   -0.0527   -2.3560   -2.1139 H   0  0  0  0  0  0  0  0  0  0  0  0
   -0.7779   -1.7572   -0.5950 H   0  0  0  0  0  0  0  0  0  0  0  0
   -1.2799   -3.3979   -8.4436 H   0  0  0  0  0  0  0  0  0  0  0  0
   -2.9577   -2.8413   -8.6673 H   0  0  0  0  0  0  0  0  0  0  0  0
    2.9531   -0.2456   -8.8377 H   0  0  0  0  0  0  0  0  0  0  0  0
    1.8606   -1.2702   -7.8554 H   0  0  0  0  0  0  0  0  0  0  0  0
    3.6260   -1.5092   -7.7749 H   0  0  0  0  0  0  0  0  0  0  0  0
    2.2142   -2.9520   -1.5903 H   0  0  0  0  0  0  0  0  0  0  0  0
    3.2758   -1.6822   -0.9799 H   0  0  0  0  0  0  0  0  0  0  0  0
   -2.4629    0.4673   -2.7815 H   0  0  0  0  0  0  0  0  0  0  0  0
   -2.5791   -0.9057   -1.6716 H   0  0  0  0  0  0  0  0  0  0  0  0
   -0.0826   -0.2516   -3.0240 H   0  0  0  0  0  0  0  0  0  0  0  0
  1  2  2  0  0  0  0
  1  3  1  0  0  0  0
  2  4  1  0  0  0  0
  3 11  2  0  0  0  0
  4 13  2  0  0  0  0
  5  8  1  0  0  0  0
  5 15  2  0  0  0  0
  6  9  1  0  0  0  0
  6 14  2  0  0  0  0
  7 10  2  0  0  0  0
  7 14  1  0  0  0  0
  8 16  2  0  0  0  0
  9 18  2  0  0  0  0
 10 18  1  0  0  0  0
 11 13  1  0  0  0  0
 11 19  1  0  0  0  0
 12 15  1  0  0  0  0
 12 17  2  0  0  0  0
 12 20  1  0  0  0  0
 13 21  1  0  0  0  0
 14 25  1  0  0  0  0
 15 26  1  0  0  0  0
 16 17  1  0  0  0  0
 16 32  1  0  0  0  0
 17 33  1  0  0  0  0
 18 34  1  0  0  0  0
 19 27  1  0  0  0  0
 19 30  2  0  0  0  0
 20 29  1  0  0  0  0
 20 31  2  0  0  0  0
 21 28  1  0  0  0  0
 22 27  1  0  0  0  0
 22 28  1  0  0  0  0
 23 32  1  0  0  0  0
 23 33  1  0  0  0  0
 24 34  1  0  0  0  0
 25 27  1  0  0  0  0
 26 28  1  0  0  0  0
  1 35  1  0  0  0  0
  2 36  1  0  0  0  0
  3 37  1  0  0  0  0
  4 38  1  0  0  0  0
  5 39  1  0  0  0  0
  6 40  1  0  0  0  0
  7 41  1  0  0  0  0
  8 42  1  0  0  0  0
  9 43  1  0  0  0  0
 10 44  1  0  0  0  0
 21 45  1  0  0  0  0
 21 46  1  0  0  0  0
 22 47  1  0  0  0  0
 22 48  1  0  0  0  0
 23 49  1  0  0  0  0
 23 50  1  0  0  0  0
 24 51  1  0  0  0  0
 24 52  1  0  0  0  0
 24 53  1  0  0  0  0
 25 54  1  0  0  0  0
 25 55  1  0  0  0  0
 26 56  1  0  0  0  0
 26 57  1  0  0  0  0
 28 58  1  0  0  0  0
M  CHG  2  28   1  29  -1
M  END
$$$$
