AVX17482_2
  -OEChem-04011314533D

 31 33  0     1  0  0  0  0  0999 V2000
    2.3687    1.2139   -0.5172 C   0  0  0  0  0  0  0  0  0  0  0  0
    2.3964   -0.0723   -1.0778 C   0  0  0  0  0  0  0  0  0  0  0  0
    1.2530    1.6549    0.1973 C   0  0  0  0  0  0  0  0  0  0  0  0
    1.3094   -0.9362   -0.9302 C   0  0  0  0  0  0  0  0  0  0  0  0
   -3.2468   -5.3069    1.0020 C   0  0  0  0  0  0  0  0  0  0  0  0
    0.1745    0.7958    0.3290 C   0  0  0  0  0  0  0  0  0  0  0  0
    0.2036   -0.4899   -0.2235 C   0  0  0  0  0  0  0  0  0  0  0  0
   -3.8924   -4.2369    1.5855 C   0  0  0  0  0  0  0  0  0  0  0  0
   -1.9469   -3.2912    1.2245 C   0  0  0  0  0  0  0  0  0  0  0  0
   -5.3449   -4.3171    2.0665 C   0  0  0  0  0  0  0  0  0  0  0  0
   -1.1042    1.0375    1.0713 C   0  0  0  0  0  0  0  0  0  0  0  0
   -1.0641   -1.2425    0.0794 C   0  0  2  0  0  0  0  0  0  0  0  0
   -1.9958   -0.0886    0.5171 C   0  0  2  0  0  0  0  0  0  0  0  0
   -0.8479   -2.2635    1.1909 C   0  0  0  0  0  0  0  0  0  0  0  0
   -3.1485   -3.0803    1.7142 N   0  0  0  0  0  0  0  0  0  0  0  0
   -5.8217   -3.2715    2.5831 O   0  5  0  0  0  0  0  0  0  0  0  0
   -5.9287   -5.4214    1.9015 O   0  0  0  0  0  0  0  0  0  0  0  0
   -2.6936    0.3909   -0.6363 O   0  0  0  0  0  0  0  0  0  0  0  0
   -1.6432   -4.8574    0.5923 S   0  0  0  0  0  0  0  0  0  0  0  0
    3.2263    1.8704   -0.6377 H   0  0  0  0  0  0  0  0  0  0  0  0
    3.2749   -0.3995   -1.6274 H   0  0  0  0  0  0  0  0  0  0  0  0
    1.2373    2.6463    0.6368 H   0  0  0  0  0  0  0  0  0  0  0  0
    1.3364   -1.9325   -1.3584 H   0  0  0  0  0  0  0  0  0  0  0  0
   -3.6239   -6.2999    0.8011 H   0  0  0  0  0  0  0  0  0  0  0  0
   -0.9283    0.9100    2.1441 H   0  0  0  0  0  0  0  0  0  0  0  0
   -1.5092    2.0318    0.8615 H   0  0  0  0  0  0  0  0  0  0  0  0
   -1.4383   -1.7325   -0.8271 H   0  0  0  0  0  0  0  0  0  0  0  0
   -2.7549   -0.4015    1.2413 H   0  0  0  0  0  0  0  0  0  0  0  0
   -0.7909   -1.7485    2.1562 H   0  0  0  0  0  0  0  0  0  0  0  0
    0.1196   -2.7585    1.0514 H   0  0  0  0  0  0  0  0  0  0  0  0
   -3.2384   -0.3459   -0.9491 H   0  0  0  0  0  0  0  0  0  0  0  0
  1  2  2  0  0  0  0
  1  3  1  0  0  0  0
  2  4  1  0  0  0  0
  3  6  2  0  0  0  0
  4  7  2  0  0  0  0
  5  8  2  0  0  0  0
  5 19  1  0  0  0  0
  6  7  1  0  0  0  0
  6 11  1  0  0  0  0
  7 12  1  0  0  0  0
  8 10  1  0  0  0  0
  8 15  1  0  0  0  0
  9 14  1  0  0  0  0
  9 15  2  0  0  0  0
  9 19  1  0  0  0  0
 10 16  1  0  0  0  0
 10 17  2  0  0  0  0
 11 13  1  0  0  0  0
 12 13  1  0  0  0  0
 12 14  1  0  0  0  0
 13 18  1  0  0  0  0
  1 20  1  0  0  0  0
  2 21  1  0  0  0  0
  3 22  1  0  0  0  0
  4 23  1  0  0  0  0
  5 24  1  0  0  0  0
 11 25  1  0  0  0  0
 11 26  1  0  0  0  0
 12 27  1  0  0  0  0
 13 28  1  0  0  0  0
 14 29  1  0  0  0  0
 14 30  1  0  0  0  0
 18 31  1  0  0  0  0
M  CHG  1  16  -1
M  END
$$$$
