AVX17679_0
  -OEChem-04011314553D

 19 20  0     0  0  0  0  0  0999 V2000
   -1.2009    1.0896   -1.4147 C   0  0  0  0  0  0  0  0  0  0  0  0
   -0.8799   -0.0285   -0.6380 C   0  0  0  0  0  0  0  0  0  0  0  0
   -2.3265    1.0925   -2.2508 C   0  0  0  0  0  0  0  0  0  0  0  0
   -1.6680   -1.1837   -0.6662 C   0  0  0  0  0  0  0  0  0  0  0  0
   -3.1259   -0.0594   -2.2892 C   0  0  0  0  0  0  0  0  0  0  0  0
   -2.7767   -1.1462   -1.5067 C   0  0  0  0  0  0  0  0  0  0  0  0
   -4.2933   -0.4889   -2.9495 C   0  0  0  0  0  0  0  0  0  0  0  0
   -4.6092    0.0096   -5.3462 C   0  0  0  0  0  0  0  0  0  0  0  0
   -5.1131    0.2583   -3.9182 C   0  0  0  0  0  0  0  0  0  0  0  0
   -4.6417   -1.7335   -2.6097 N   0  0  0  0  0  0  0  0  0  0  0  0
   -4.6946   -1.1860   -5.7459 O   0  5  0  0  0  0  0  0  0  0  0  0
   -4.1747    1.0319   -5.9486 O   0  0  0  0  0  0  0  0  0  0  0  0
   -3.6797   -2.1469   -1.6963 O   0  0  0  0  0  0  0  0  0  0  0  0
   -0.5669    1.9717   -1.3695 H   0  0  0  0  0  0  0  0  0  0  0  0
   -0.0003    0.0006    0.0004 H   0  0  0  0  0  0  0  0  0  0  0  0
   -2.5635    1.9670   -2.8483 H   0  0  0  0  0  0  0  0  0  0  0  0
   -1.4271   -2.0548   -0.0692 H   0  0  0  0  0  0  0  0  0  0  0  0
   -6.1830   -0.0243   -3.8608 H   0  0  0  0  0  0  0  0  0  0  0  0
   -5.1004    1.3479   -3.7177 H   0  0  0  0  0  0  0  0  0  0  0  0
  1  2  2  0  0  0  0
  1  3  1  0  0  0  0
  2  4  1  0  0  0  0
  3  5  2  0  0  0  0
  4  6  2  0  0  0  0
  5  6  1  0  0  0  0
  5  7  1  0  0  0  0
  6 13  1  0  0  0  0
  7  9  1  0  0  0  0
  7 10  2  0  0  0  0
  8  9  1  0  0  0  0
  8 11  1  0  0  0  0
  8 12  2  0  0  0  0
 10 13  1  0  0  0  0
  1 14  1  0  0  0  0
  2 15  1  0  0  0  0
  3 16  1  0  0  0  0
  4 17  1  0  0  0  0
  9 18  1  0  0  0  0
  9 19  1  0  0  0  0
M  CHG  1  11  -1
M  END
$$$$
