AVX17627_0
  -OEChem-04011314553D

 49 52  0     0  0  0  0  0  0999 V2000
   -4.5930   -7.0014   -1.5526 C   0  0  0  0  0  0  0  0  0  0  0  0
   -7.2381   -0.8202    1.0394 C   0  0  0  0  0  0  0  0  0  0  0  0
   -5.3289   -5.8647   -1.8870 C   0  0  0  0  0  0  0  0  0  0  0  0
   -3.5829   -6.9212   -0.5939 C   0  0  0  0  0  0  0  0  0  0  0  0
   -6.8841   -1.8015    1.9653 C   0  0  0  0  0  0  0  0  0  0  0  0
   -6.4607   -0.6257   -0.1023 C   0  0  0  0  0  0  0  0  0  0  0  0
   -5.0548   -4.6477   -1.2629 C   0  0  0  0  0  0  0  0  0  0  0  0
   -3.3087   -5.7043    0.0302 C   0  0  0  0  0  0  0  0  0  0  0  0
   -5.7525   -2.5881    1.7497 C   0  0  0  0  0  0  0  0  0  0  0  0
   -5.3292   -1.4123   -0.3180 C   0  0  0  0  0  0  0  0  0  0  0  0
   -0.5619    1.8212    0.9722 C   0  0  0  0  0  0  0  0  0  0  0  0
   -1.0003    3.1427    1.0858 C   0  0  0  0  0  0  0  0  0  0  0  0
   -0.6347    1.9606   -1.4575 C   0  0  0  0  0  0  0  0  0  0  0  0
   -4.0446   -4.5675   -0.3043 C   0  0  0  0  0  0  0  0  0  0  0  0
   -4.9751   -2.3936    0.6080 C   0  0  0  0  0  0  0  0  0  0  0  0
   -0.3801    1.2336   -0.2921 C   0  0  0  0  0  0  0  0  0  0  0  0
   -1.2446    3.8387   -0.0803 C   0  0  0  0  0  0  0  0  0  0  0  0
   -1.0666    3.2636   -1.3178 C   0  0  0  0  0  0  0  0  0  0  0  0
   -0.4513    1.3690   -2.7925 C   0  0  0  0  0  0  0  0  0  0  0  0
   -1.8158   -1.6796    0.2331 C   0  0  0  0  0  0  0  0  0  0  0  0
   -1.7463    5.2988   -1.5962 C   0  0  0  0  0  0  0  0  0  0  0  0
    0.0907   -0.1835   -0.3620 C   0  0  0  0  0  0  0  0  0  0  0  0
   -3.7464   -3.2470    0.3733 C   0  0  0  0  0  0  0  0  0  0  0  0
   -0.9700   -1.0930   -0.7087 N   0  0  0  0  0  0  0  0  0  0  0  0
   -2.7504   -2.5151   -0.3733 N   0  0  0  0  0  0  0  0  0  0  0  0
    0.6968    1.4773   -3.3660 O   0  5  0  0  0  0  0  0  0  0  0  0
   -1.4448    0.7626   -3.3437 O   0  0  0  0  0  0  0  0  0  0  0  0
   -1.7454   -1.4829    1.4455 O   0  0  0  0  0  0  0  0  0  0  0  0
   -1.6735    5.1273   -0.1660 O   0  0  0  0  0  0  0  0  0  0  0  0
   -1.3620    4.1200   -2.3332 O   0  0  0  0  0  0  0  0  0  0  0  0
   -4.8075   -7.9492   -2.0377 H   0  0  0  0  0  0  0  0  0  0  0  0
   -8.1199   -0.2087    1.2068 H   0  0  0  0  0  0  0  0  0  0  0  0
   -6.1162   -5.9272   -2.6327 H   0  0  0  0  0  0  0  0  0  0  0  0
   -3.0104   -7.8062   -0.3325 H   0  0  0  0  0  0  0  0  0  0  0  0
   -7.4899   -1.9539    2.8538 H   0  0  0  0  0  0  0  0  0  0  0  0
   -6.7366    0.1375   -0.8240 H   0  0  0  0  0  0  0  0  0  0  0  0
   -5.6332   -3.7672   -1.5300 H   0  0  0  0  0  0  0  0  0  0  0  0
   -2.5198   -5.6512    0.7758 H   0  0  0  0  0  0  0  0  0  0  0  0
   -5.4842   -3.3502    2.4766 H   0  0  0  0  0  0  0  0  0  0  0  0
   -4.7294   -1.2535   -1.2103 H   0  0  0  0  0  0  0  0  0  0  0  0
   -0.3611    1.2484    1.8745 H   0  0  0  0  0  0  0  0  0  0  0  0
   -1.1418    3.5995    2.0586 H   0  0  0  0  0  0  0  0  0  0  0  0
   -2.7758    5.5611   -1.8661 H   0  0  0  0  0  0  0  0  0  0  0  0
   -1.0854    6.1241   -1.8849 H   0  0  0  0  0  0  0  0  0  0  0  0
    0.8844   -0.2971   -1.1118 H   0  0  0  0  0  0  0  0  0  0  0  0
    0.5079   -0.5137    0.5979 H   0  0  0  0  0  0  0  0  0  0  0  0
   -3.2741   -3.4391    1.3456 H   0  0  0  0  0  0  0  0  0  0  0  0
   -1.1100   -1.3196   -1.6908 H   0  0  0  0  0  0  0  0  0  0  0  0
   -2.7632   -2.5805   -1.3863 H   0  0  0  0  0  0  0  0  0  0  0  0
  1  3  2  0  0  0  0
  1  4  1  0  0  0  0
  2  5  2  0  0  0  0
  2  6  1  0  0  0  0
  3  7  1  0  0  0  0
  4  8  2  0  0  0  0
  5  9  1  0  0  0  0
  6 10  2  0  0  0  0
  7 14  2  0  0  0  0
  8 14  1  0  0  0  0
  9 15  2  0  0  0  0
 10 15  1  0  0  0  0
 11 12  1  0  0  0  0
 11 16  2  0  0  0  0
 12 17  2  0  0  0  0
 13 16  1  0  0  0  0
 13 18  2  0  0  0  0
 13 19  1  0  0  0  0
 14 23  1  0  0  0  0
 15 23  1  0  0  0  0
 16 22  1  0  0  0  0
 17 18  1  0  0  0  0
 17 29  1  0  0  0  0
 18 30  1  0  0  0  0
 19 26  1  0  0  0  0
 19 27  2  0  0  0  0
 20 24  1  0  0  0  0
 20 25  1  0  0  0  0
 20 28  2  0  0  0  0
 21 29  1  0  0  0  0
 21 30  1  0  0  0  0
 22 24  1  0  0  0  0
 23 25  1  0  0  0  0
  1 31  1  0  0  0  0
  2 32  1  0  0  0  0
  3 33  1  0  0  0  0
  4 34  1  0  0  0  0
  5 35  1  0  0  0  0
  6 36  1  0  0  0  0
  7 37  1  0  0  0  0
  8 38  1  0  0  0  0
  9 39  1  0  0  0  0
 10 40  1  0  0  0  0
 11 41  1  0  0  0  0
 12 42  1  0  0  0  0
 21 43  1  0  0  0  0
 21 44  1  0  0  0  0
 22 45  1  0  0  0  0
 22 46  1  0  0  0  0
 23 47  1  0  0  0  0
 24 48  1  0  0  0  0
 25 49  1  0  0  0  0
M  CHG  1  26  -1
M  END
$$$$
