AVX17684_1
  -OEChem-04011314553D

 54 58  0     1  0  0  0  0  0999 V2000
   -2.1057   -1.8265   -5.4310 C   0  0  0  0  0  0  0  0  0  0  0  0
    2.0711   -0.3869    2.3041 C   0  0  0  0  0  0  0  0  0  0  0  0
    0.9615   -1.0456    2.8299 C   0  0  0  0  0  0  0  0  0  0  0  0
   -0.7233   -1.8175   -5.2450 C   0  0  0  0  0  0  0  0  0  0  0  0
   -2.8914   -0.8195   -4.8702 C   0  0  0  0  0  0  0  0  0  0  0  0
    2.0584    0.0589    0.9834 C   0  0  0  0  0  0  0  0  0  0  0  0
   -0.1641   -1.2672    2.0349 C   0  0  0  0  0  0  0  0  0  0  0  0
   -0.1267   -0.8018   -4.4981 C   0  0  0  0  0  0  0  0  0  0  0  0
   -2.2948    0.1962   -4.1234 C   0  0  0  0  0  0  0  0  0  0  0  0
   -4.8328    1.5544   -1.1708 C   0  0  0  0  0  0  0  0  0  0  0  0
   -5.6361    2.6070   -1.6158 C   0  0  0  0  0  0  0  0  0  0  0  0
    0.9252   -0.1492    0.1881 C   0  0  0  0  0  0  0  0  0  0  0  0
   -4.1540    2.8412    0.7816 C   0  0  0  0  0  0  0  0  0  0  0  0
   -0.1944   -0.8293    0.7041 C   0  0  0  0  0  0  0  0  0  0  0  0
   -0.9124    0.2052   -3.9373 C   0  0  0  0  0  0  0  0  0  0  0  0
   -4.0960    1.6708    0.0211 C   0  0  0  0  0  0  0  0  0  0  0  0
   -5.6759    3.7517   -0.8465 C   0  0  0  0  0  0  0  0  0  0  0  0
   -4.9548    3.8656    0.3201 C   0  0  0  0  0  0  0  0  0  0  0  0
    0.9623    0.3300   -1.2176 C   0  0  0  0  0  0  0  0  0  0  0  0
   -3.3934    2.9876    2.0329 C   0  0  0  0  0  0  0  0  0  0  0  0
   -1.4078   -1.0930   -0.1449 C   0  0  0  0  0  0  0  0  0  0  0  0
   -1.3156    1.3373   -0.8810 C   0  0  0  0  0  0  0  0  0  0  0  0
   -6.0506    5.7048    0.0062 C   0  0  0  0  0  0  0  0  0  0  0  0
   -0.2708    1.2987   -3.1331 C   0  0  0  0  0  0  0  0  0  0  0  0
   -3.2476    0.5128    0.4574 C   0  0  0  0  0  0  0  0  0  0  0  0
   -0.1842    0.9572   -1.7213 N   0  0  0  0  0  0  0  0  0  0  0  0
   -2.1871    0.1475   -0.5461 N   0  3  2  0  0  0  0  0  0  0  0  0
   -3.9461    2.6296    3.1398 O   0  5  0  0  0  0  0  0  0  0  0  0
    1.9931    0.1288   -1.8579 O   0  0  0  0  0  0  0  0  0  0  0  0
   -2.2000    3.4692    1.9803 O   0  0  0  0  0  0  0  0  0  0  0  0
   -6.3983    4.8722   -1.1191 O   0  0  0  0  0  0  0  0  0  0  0  0
   -5.1352    5.0718    0.9238 O   0  0  0  0  0  0  0  0  0  0  0  0
   -2.5699   -2.6167   -6.0137 H   0  0  0  0  0  0  0  0  0  0  0  0
    2.9468   -0.2197    2.9245 H   0  0  0  0  0  0  0  0  0  0  0  0
    0.9737   -1.3911    3.8596 H   0  0  0  0  0  0  0  0  0  0  0  0
   -0.1112   -2.6009   -5.6825 H   0  0  0  0  0  0  0  0  0  0  0  0
   -3.9676   -0.8256   -5.0158 H   0  0  0  0  0  0  0  0  0  0  0  0
    2.9311    0.5747    0.5916 H   0  0  0  0  0  0  0  0  0  0  0  0
   -1.0173   -1.7882    2.4624 H   0  0  0  0  0  0  0  0  0  0  0  0
    0.9511   -0.8030   -4.3582 H   0  0  0  0  0  0  0  0  0  0  0  0
   -2.9149    0.9765   -3.6901 H   0  0  0  0  0  0  0  0  0  0  0  0
   -4.7824    0.6397   -1.7568 H   0  0  0  0  0  0  0  0  0  0  0  0
   -6.2058    2.5214   -2.5341 H   0  0  0  0  0  0  0  0  0  0  0  0
   -1.1069   -1.5856   -1.0782 H   0  0  0  0  0  0  0  0  0  0  0  0
   -2.1120   -1.7756    0.3454 H   0  0  0  0  0  0  0  0  0  0  0  0
   -0.9556    1.7693    0.0597 H   0  0  0  0  0  0  0  0  0  0  0  0
   -1.9455    2.0703   -1.3968 H   0  0  0  0  0  0  0  0  0  0  0  0
   -5.5906    6.6265   -0.3682 H   0  0  0  0  0  0  0  0  0  0  0  0
   -6.9676    5.9636    0.5479 H   0  0  0  0  0  0  0  0  0  0  0  0
    0.7437    1.4994   -3.4944 H   0  0  0  0  0  0  0  0  0  0  0  0
   -0.8368    2.2324   -3.2175 H   0  0  0  0  0  0  0  0  0  0  0  0
   -2.7292    0.7335    1.3966 H   0  0  0  0  0  0  0  0  0  0  0  0
   -3.8548   -0.3853    0.6144 H   0  0  0  0  0  0  0  0  0  0  0  0
   -2.6855   -0.0997   -1.4116 H   0  0  0  0  0  0  0  0  0  0  0  0
  1  4  2  0  0  0  0
  1  5  1  0  0  0  0
  2  3  2  0  0  0  0
  2  6  1  0  0  0  0
  3  7  1  0  0  0  0
  4  8  1  0  0  0  0
  5  9  2  0  0  0  0
  6 12  2  0  0  0  0
  7 14  2  0  0  0  0
  8 15  2  0  0  0  0
  9 15  1  0  0  0  0
 10 11  1  0  0  0  0
 10 16  2  0  0  0  0
 11 17  2  0  0  0  0
 12 14  1  0  0  0  0
 12 19  1  0  0  0  0
 13 16  1  0  0  0  0
 13 18  2  0  0  0  0
 13 20  1  0  0  0  0
 14 21  1  0  0  0  0
 15 24  1  0  0  0  0
 16 25  1  0  0  0  0
 17 18  1  0  0  0  0
 17 31  1  0  0  0  0
 18 32  1  0  0  0  0
 19 26  1  0  0  0  0
 19 29  2  0  0  0  0
 20 28  1  0  0  0  0
 20 30  2  0  0  0  0
 21 27  1  0  0  0  0
 22 26  1  0  0  0  0
 22 27  1  0  0  0  0
 23 31  1  0  0  0  0
 23 32  1  0  0  0  0
 24 26  1  0  0  0  0
 25 27  1  0  0  0  0
  1 33  1  0  0  0  0
  2 34  1  0  0  0  0
  3 35  1  0  0  0  0
  4 36  1  0  0  0  0
  5 37  1  0  0  0  0
  6 38  1  0  0  0  0
  7 39  1  0  0  0  0
  8 40  1  0  0  0  0
  9 41  1  0  0  0  0
 10 42  1  0  0  0  0
 11 43  1  0  0  0  0
 21 44  1  0  0  0  0
 21 45  1  0  0  0  0
 22 46  1  0  0  0  0
 22 47  1  0  0  0  0
 23 48  1  0  0  0  0
 23 49  1  0  0  0  0
 24 50  1  0  0  0  0
 24 51  1  0  0  0  0
 25 52  1  0  0  0  0
 25 53  1  0  0  0  0
 27 54  1  0  0  0  0
M  CHG  2  27   1  28  -1
M  END
$$$$
