AVX101120_1
  -OEChem-04011314513D

 71 74  0     1  0  0  0  0  0999 V2000
    5.5521    6.1086    2.4242 C   0  0  0  0  0  0  0  0  0  0  0  0
    4.2588    5.8648    2.8864 C   0  0  0  0  0  0  0  0  0  0  0  0
    5.9647    5.5860    1.1985 C   0  0  0  0  0  0  0  0  0  0  0  0
    0.1842   -4.2441   -1.1368 C   0  0  0  0  0  0  0  0  0  0  0  0
    3.3782    5.0983    2.1231 C   0  0  0  0  0  0  0  0  0  0  0  0
    5.0841    4.8195    0.4351 C   0  0  0  0  0  0  0  0  0  0  0  0
    2.9819    3.7772   -1.2851 C   0  0  0  0  0  0  0  0  0  0  0  0
   -0.0626   -2.8766   -1.2579 C   0  0  0  0  0  0  0  0  0  0  0  0
    2.1012    3.0111   -2.0488 C   0  0  0  0  0  0  0  0  0  0  0  0
   -4.1308    1.4342   -0.1920 C   0  0  0  0  0  0  0  0  0  0  0  0
   -3.1962   -0.6716    0.5352 C   0  0  0  0  0  0  0  0  0  0  0  0
    0.0458   -5.0787   -2.2459 C   0  0  0  0  0  0  0  0  0  0  0  0
   -4.9704    0.7564   -1.0759 C   0  0  0  0  0  0  0  0  0  0  0  0
   -4.0358   -1.3495   -0.3487 C   0  0  0  0  0  0  0  0  0  0  0  0
    1.8916    3.0186    0.7330 C   0  0  0  0  0  0  0  0  0  0  0  0
    3.7909    4.5757    0.8974 C   0  0  0  0  0  0  0  0  0  0  0  0
    2.8771    3.7809    0.1058 C   0  0  0  0  0  0  0  0  0  0  0  0
    1.0109    2.2525   -0.0307 C   0  0  0  0  0  0  0  0  0  0  0  0
   -0.5864   -3.1783   -3.5971 C   0  0  0  0  0  0  0  0  0  0  0  0
   -3.2437    0.7202    0.6135 C   0  0  0  0  0  0  0  0  0  0  0  0
    1.1158    2.2488   -1.4217 C   0  0  0  0  0  0  0  0  0  0  0  0
   -0.4479   -2.3437   -2.4880 C   0  0  0  0  0  0  0  0  0  0  0  0
   -4.9229   -0.6354   -1.1543 C   0  0  0  0  0  0  0  0  0  0  0  0
   -0.3396   -4.5458   -3.4760 C   0  0  0  0  0  0  0  0  0  0  0  0
   -0.0090    1.4655    0.6493 C   0  0  0  0  0  0  0  0  0  0  0  0
   -0.9974   -2.6196   -4.9005 C   0  0  0  0  0  0  0  0  0  0  0  0
    1.6814   -0.3762   -3.0887 C   0  0  0  0  0  0  0  0  0  0  0  0
   -5.6426   -2.7196   -2.0452 C   0  0  0  0  0  0  0  0  0  0  0  0
   -0.1977   -6.7617   -4.3277 C   0  0  0  0  0  0  0  0  0  0  0  0
   -2.3404    1.4496    1.5655 C   0  0  0  0  0  0  0  0  0  0  0  0
    0.1819    1.4342   -2.2673 C   0  0  0  0  0  0  0  0  0  0  0  0
   -0.7077   -0.8694   -2.5880 C   0  0  0  0  0  0  0  0  0  0  0  0
   -1.2388    2.0895    0.8829 N   0  0  0  0  0  0  0  0  0  0  0  0
    0.4915   -0.0354   -2.2377 N   0  3  1  0  0  0  0  0  0  0  0  0
   -2.2516   -2.5617   -5.1771 O   0  5  0  0  0  0  0  0  0  0  0  0
    0.2332    0.3026    1.0139 O   0  0  0  0  0  0  0  0  0  0  0  0
   -0.0856   -2.2122   -5.7102 O   0  0  0  0  0  0  0  0  0  0  0  0
   -5.7431   -1.2967   -2.0159 O   0  0  0  0  0  0  0  0  0  0  0  0
   -0.4709   -5.3794   -4.5463 O   0  0  0  0  0  0  0  0  0  0  0  0
    6.2370    6.7068    3.0179 H   0  0  0  0  0  0  0  0  0  0  0  0
    3.9369    6.2730    3.8400 H   0  0  0  0  0  0  0  0  0  0  0  0
    6.9711    5.7766    0.8373 H   0  0  0  0  0  0  0  0  0  0  0  0
    0.4853   -4.6587   -0.1793 H   0  0  0  0  0  0  0  0  0  0  0  0
    2.3732    4.9174    2.4971 H   0  0  0  0  0  0  0  0  0  0  0  0
    5.4197    4.4192   -0.5186 H   0  0  0  0  0  0  0  0  0  0  0  0
    3.7447    4.3662   -1.7887 H   0  0  0  0  0  0  0  0  0  0  0  0
    0.0479   -2.2343   -0.3883 H   0  0  0  0  0  0  0  0  0  0  0  0
    2.1911    3.0150   -3.1320 H   0  0  0  0  0  0  0  0  0  0  0  0
   -4.1745    2.5187   -0.1376 H   0  0  0  0  0  0  0  0  0  0  0  0
   -2.5080   -1.2363    1.1590 H   0  0  0  0  0  0  0  0  0  0  0  0
    0.2394   -6.1433   -2.1437 H   0  0  0  0  0  0  0  0  0  0  0  0
   -5.6596    1.3183   -1.7007 H   0  0  0  0  0  0  0  0  0  0  0  0
   -3.9942   -2.4336   -0.4048 H   0  0  0  0  0  0  0  0  0  0  0  0
    1.8071    3.0193    1.8182 H   0  0  0  0  0  0  0  0  0  0  0  0
    1.4316   -0.1356   -4.1237 H   0  0  0  0  0  0  0  0  0  0  0  0
    2.5247    0.2224   -2.7390 H   0  0  0  0  0  0  0  0  0  0  0  0
    1.8817   -1.4429   -2.9712 H   0  0  0  0  0  0  0  0  0  0  0  0
   -6.3510   -3.1208   -2.7742 H   0  0  0  0  0  0  0  0  0  0  0  0
   -5.8585   -3.1216   -1.0521 H   0  0  0  0  0  0  0  0  0  0  0  0
   -4.6270   -2.9984   -2.3361 H   0  0  0  0  0  0  0  0  0  0  0  0
   -0.3397   -7.3138   -5.2599 H   0  0  0  0  0  0  0  0  0  0  0  0
   -0.8683   -7.1491   -3.5565 H   0  0  0  0  0  0  0  0  0  0  0  0
    0.8375   -6.8713   -3.9961 H   0  0  0  0  0  0  0  0  0  0  0  0
   -2.8951    2.2223    2.1087 H   0  0  0  0  0  0  0  0  0  0  0  0
   -1.9206    0.7659    2.3108 H   0  0  0  0  0  0  0  0  0  0  0  0
   -0.8547    1.5440   -1.9309 H   0  0  0  0  0  0  0  0  0  0  0  0
    0.2267    1.7440   -3.3170 H   0  0  0  0  0  0  0  0  0  0  0  0
   -1.0010   -0.5871   -3.6048 H   0  0  0  0  0  0  0  0  0  0  0  0
   -1.5126   -0.5628   -1.9113 H   0  0  0  0  0  0  0  0  0  0  0  0
   -1.3610    3.0620    0.6201 H   0  0  0  0  0  0  0  0  0  0  0  0
    0.7428   -0.2676   -1.2673 H   0  0  0  0  0  0  0  0  0  0  0  0
  1  2  2  0  0  0  0
  1  3  1  0  0  0  0
  2  5  1  0  0  0  0
  3  6  2  0  0  0  0
  4  8  2  0  0  0  0
  4 12  1  0  0  0  0
  5 16  2  0  0  0  0
  6 16  1  0  0  0  0
  7  9  2  0  0  0  0
  7 17  1  0  0  0  0
  8 22  1  0  0  0  0
  9 21  1  0  0  0  0
 10 13  1  0  0  0  0
 10 20  2  0  0  0  0
 11 14  2  0  0  0  0
 11 20  1  0  0  0  0
 12 24  2  0  0  0  0
 13 23  2  0  0  0  0
 14 23  1  0  0  0  0
 15 17  2  0  0  0  0
 15 18  1  0  0  0  0
 16 17  1  0  0  0  0
 18 21  2  0  0  0  0
 18 25  1  0  0  0  0
 19 22  2  0  0  0  0
 19 24  1  0  0  0  0
 19 26  1  0  0  0  0
 20 30  1  0  0  0  0
 21 31  1  0  0  0  0
 22 32  1  0  0  0  0
 23 38  1  0  0  0  0
 24 39  1  0  0  0  0
 25 33  1  0  0  0  0
 25 36  2  0  0  0  0
 26 35  1  0  0  0  0
 26 37  2  0  0  0  0
 27 34  1  0  0  0  0
 28 38  1  0  0  0  0
 29 39  1  0  0  0  0
 30 33  1  0  0  0  0
 31 34  1  0  0  0  0
 32 34  1  0  0  0  0
  1 40  1  0  0  0  0
  2 41  1  0  0  0  0
  3 42  1  0  0  0  0
  4 43  1  0  0  0  0
  5 44  1  0  0  0  0
  6 45  1  0  0  0  0
  7 46  1  0  0  0  0
  8 47  1  0  0  0  0
  9 48  1  0  0  0  0
 10 49  1  0  0  0  0
 11 50  1  0  0  0  0
 12 51  1  0  0  0  0
 13 52  1  0  0  0  0
 14 53  1  0  0  0  0
 15 54  1  0  0  0  0
 27 55  1  0  0  0  0
 27 56  1  0  0  0  0
 27 57  1  0  0  0  0
 28 58  1  0  0  0  0
 28 59  1  0  0  0  0
 28 60  1  0  0  0  0
 29 61  1  0  0  0  0
 29 62  1  0  0  0  0
 29 63  1  0  0  0  0
 30 64  1  0  0  0  0
 30 65  1  0  0  0  0
 31 66  1  0  0  0  0
 31 67  1  0  0  0  0
 32 68  1  0  0  0  0
 32 69  1  0  0  0  0
 33 70  1  0  0  0  0
 34 71  1  0  0  0  0
M  CHG  2  34   1  35  -1
M  END
$$$$
