AVX101139_0
  -OEChem-04011314513D

 57 59  0     1  0  0  0  0  0999 V2000
    7.8402    4.2014   -2.1032 C   0  0  0  0  0  0  0  0  0  0  0  0
    7.6870    2.9245   -2.6430 C   0  0  0  0  0  0  0  0  0  0  0  0
    6.9697    4.6472   -1.1086 C   0  0  0  0  0  0  0  0  0  0  0  0
    6.6632    2.0933   -2.1884 C   0  0  0  0  0  0  0  0  0  0  0  0
    5.9459    3.8161   -0.6540 C   0  0  0  0  0  0  0  0  0  0  0  0
    1.9734    2.7142   -4.0319 C   0  0  0  0  0  0  0  0  0  0  0  0
    0.8613    2.9698   -4.8340 C   0  0  0  0  0  0  0  0  0  0  0  0
    1.5397    0.3424   -4.1865 C   0  0  0  0  0  0  0  0  0  0  0  0
    5.7926    2.5391   -1.1938 C   0  0  0  0  0  0  0  0  0  0  0  0
    2.3126    1.4004   -3.7081 C   0  0  0  0  0  0  0  0  0  0  0  0
    0.0883    1.9118   -5.3123 C   0  0  0  0  0  0  0  0  0  0  0  0
    0.4275    0.5981   -4.9886 C   0  0  0  0  0  0  0  0  0  0  0  0
    1.8943   -1.0494   -3.8442 C   0  0  0  0  0  0  0  0  0  0  0  0
   -2.1123   -2.0006   -5.3687 C   0  0  0  0  0  0  0  0  0  0  0  0
    0.6252    2.0891    1.1171 C   0  0  0  0  0  0  0  0  0  0  0  0
    0.2460    3.4532    1.6544 C   0  0  0  0  0  0  0  0  0  0  0  0
    1.4730    3.7524   -0.3034 C   0  0  0  0  0  0  0  0  0  0  0  0
    1.8576    2.4132    0.3011 C   0  0  2  0  0  0  0  0  0  0  0  0
   -1.2713    3.5466   -6.3776 C   0  0  0  0  0  0  0  0  0  0  0  0
    4.6911    1.6457   -0.7045 C   0  0  0  0  0  0  0  0  0  0  0  0
    3.5142    1.1559   -2.8437 C   0  0  0  0  0  0  0  0  0  0  0  0
   -1.4271   -0.8511   -4.6477 C   0  0  0  0  0  0  0  0  0  0  0  0
    2.2175    1.3584   -0.7275 C   0  0  0  0  0  0  0  0  0  0  0  0
    3.4080    1.8066   -1.4848 N   0  3  1  0  0  0  0  0  0  0  0  0
    2.6934   -1.6895   -4.6217 O   0  5  0  0  0  0  0  0  0  0  0  0
   -1.3769   -3.0009   -5.6028 O   0  5  0  0  0  0  0  0  0  0  0  0
    1.3904   -1.5690   -2.7817 O   0  0  0  0  0  0  0  0  0  0  0  0
   -3.3322   -1.8141   -5.6366 O   0  0  0  0  0  0  0  0  0  0  0  0
    0.6472    4.4144    0.6670 O   0  0  0  0  0  0  0  0  0  0  0  0
   -0.9952    2.1762   -6.0948 O   0  0  0  0  0  0  0  0  0  0  0  0
   -0.3342   -0.4306   -5.4604 O   0  0  0  0  0  0  0  0  0  0  0  0
    8.6382    4.8480   -2.4563 H   0  0  0  0  0  0  0  0  0  0  0  0
    8.3653    2.5767   -3.4167 H   0  0  0  0  0  0  0  0  0  0  0  0
    7.0893    5.6410   -0.6873 H   0  0  0  0  0  0  0  0  0  0  0  0
    6.5512    1.0999   -2.6150 H   0  0  0  0  0  0  0  0  0  0  0  0
    5.2723    4.1719    0.1212 H   0  0  0  0  0  0  0  0  0  0  0  0
    2.5695    3.5452   -3.6643 H   0  0  0  0  0  0  0  0  0  0  0  0
    0.6024    3.9954   -5.0828 H   0  0  0  0  0  0  0  0  0  0  0  0
    0.8029    1.3578    1.9105 H   0  0  0  0  0  0  0  0  0  0  0  0
   -0.1755    1.7065    0.4724 H   0  0  0  0  0  0  0  0  0  0  0  0
   -0.8267    3.5462    1.8451 H   0  0  0  0  0  0  0  0  0  0  0  0
    0.7868    3.6799    2.5795 H   0  0  0  0  0  0  0  0  0  0  0  0
    2.3436    4.3763   -0.5263 H   0  0  0  0  0  0  0  0  0  0  0  0
    0.8826    3.6388   -1.2193 H   0  0  0  0  0  0  0  0  0  0  0  0
    2.7048    2.5585    0.9844 H   0  0  0  0  0  0  0  0  0  0  0  0
   -2.1598    3.6170   -7.0099 H   0  0  0  0  0  0  0  0  0  0  0  0
   -0.4134    3.9948   -6.8851 H   0  0  0  0  0  0  0  0  0  0  0  0
   -1.4528    4.0739   -5.4381 H   0  0  0  0  0  0  0  0  0  0  0  0
    4.9745    0.5903   -0.7795 H   0  0  0  0  0  0  0  0  0  0  0  0
    4.4500    1.8529    0.3437 H   0  0  0  0  0  0  0  0  0  0  0  0
    3.6649    0.0852   -2.6687 H   0  0  0  0  0  0  0  0  0  0  0  0
    4.4239    1.5490   -3.3104 H   0  0  0  0  0  0  0  0  0  0  0  0
   -1.0488   -1.1841   -3.6764 H   0  0  0  0  0  0  0  0  0  0  0  0
   -2.1082   -0.0075   -4.4998 H   0  0  0  0  0  0  0  0  0  0  0  0
    1.4113    1.2109   -1.4494 H   0  0  0  0  0  0  0  0  0  0  0  0
    2.4738    0.4081   -0.2543 H   0  0  0  0  0  0  0  0  0  0  0  0
    3.3098    2.8218   -1.6632 H   0  0  0  0  0  0  0  0  0  0  0  0
  1  2  2  0  0  0  0
  1  3  1  0  0  0  0
  2  4  1  0  0  0  0
  3  5  2  0  0  0  0
  4  9  2  0  0  0  0
  5  9  1  0  0  0  0
  6  7  1  0  0  0  0
  6 10  2  0  0  0  0
  7 11  2  0  0  0  0
  8 10  1  0  0  0  0
  8 12  2  0  0  0  0
  8 13  1  0  0  0  0
  9 20  1  0  0  0  0
 10 21  1  0  0  0  0
 11 12  1  0  0  0  0
 11 30  1  0  0  0  0
 12 31  1  0  0  0  0
 13 25  1  0  0  0  0
 13 27  2  0  0  0  0
 14 22  1  0  0  0  0
 14 26  1  0  0  0  0
 14 28  2  0  0  0  0
 15 16  1  0  0  0  0
 15 18  1  0  0  0  0
 16 29  1  0  0  0  0
 17 18  1  0  0  0  0
 17 29  1  0  0  0  0
 18 23  1  0  0  0  0
 19 30  1  0  0  0  0
 20 24  1  0  0  0  0
 21 24  1  0  0  0  0
 22 31  1  0  0  0  0
 23 24  1  0  0  0  0
  1 32  1  0  0  0  0
  2 33  1  0  0  0  0
  3 34  1  0  0  0  0
  4 35  1  0  0  0  0
  5 36  1  0  0  0  0
  6 37  1  0  0  0  0
  7 38  1  0  0  0  0
 15 39  1  0  0  0  0
 15 40  1  0  0  0  0
 16 41  1  0  0  0  0
 16 42  1  0  0  0  0
 17 43  1  0  0  0  0
 17 44  1  0  0  0  0
 18 45  1  0  0  0  0
 19 46  1  0  0  0  0
 19 47  1  0  0  0  0
 19 48  1  0  0  0  0
 20 49  1  0  0  0  0
 20 50  1  0  0  0  0
 21 51  1  0  0  0  0
 21 52  1  0  0  0  0
 22 53  1  0  0  0  0
 22 54  1  0  0  0  0
 23 55  1  0  0  0  0
 23 56  1  0  0  0  0
 24 57  1  0  0  0  0
M  CHG  3  24   1  25  -1  26  -1
M  END
$$$$
