AVX17370_0
  -OEChem-04011314533D

 41 43  0     0  0  0  0  0  0999 V2000
   -7.9054    3.1953    1.9352 C   0  0  0  0  0  0  0  0  0  0  0  0
   -0.7036    1.3640    1.5041 C   0  0  0  0  0  0  0  0  0  0  0  0
   -8.4495    2.6419    3.0943 C   0  0  0  0  0  0  0  0  0  0  0  0
   -7.0810    2.4250    1.1151 C   0  0  0  0  0  0  0  0  0  0  0  0
   -0.7671    0.1975    0.7446 C   0  0  0  0  0  0  0  0  0  0  0  0
   -1.6773    1.6439    2.4698 C   0  0  0  0  0  0  0  0  0  0  0  0
   -8.1691    1.3182    3.4332 C   0  0  0  0  0  0  0  0  0  0  0  0
   -6.8006    1.1013    1.4540 C   0  0  0  0  0  0  0  0  0  0  0  0
   -1.8022   -0.7245    0.9247 C   0  0  0  0  0  0  0  0  0  0  0  0
   -2.7304    0.7292    2.6692 C   0  0  0  0  0  0  0  0  0  0  0  0
   -3.8586    0.6897    3.5356 C   0  0  0  0  0  0  0  0  0  0  0  0
   -7.3446    0.5479    2.6131 C   0  0  0  0  0  0  0  0  0  0  0  0
   -2.7685   -0.4315    1.8936 C   0  0  0  0  0  0  0  0  0  0  0  0
   -4.5471   -0.4724    3.2738 C   0  0  0  0  0  0  0  0  0  0  0  0
   -4.2460    1.6622    4.5194 C   0  0  0  0  0  0  0  0  0  0  0  0
   -3.6718    5.3024    4.5137 C   0  0  0  0  0  0  0  0  0  0  0  0
   -7.0406   -0.8844    2.9793 C   0  0  0  0  0  0  0  0  0  0  0  0
   -5.7802   -1.0271    3.8663 C   0  0  0  0  0  0  0  0  0  0  0  0
   -4.1861    3.9956    5.0787 C   0  0  0  0  0  0  0  0  0  0  0  0
   -3.8818   -1.1421    2.2822 N   0  0  0  0  0  0  0  0  0  0  0  0
   -4.8633    1.4095    5.5745 O   0  0  0  0  0  0  0  0  0  0  0  0
   -3.8576    2.9352    4.1746 O   0  0  0  0  0  0  0  0  0  0  0  0
   -8.1250    4.2256    1.6708 H   0  0  0  0  0  0  0  0  0  0  0  0
    0.1103    2.0666    1.3457 H   0  0  0  0  0  0  0  0  0  0  0  0
   -9.0923    3.2412    3.7324 H   0  0  0  0  0  0  0  0  0  0  0  0
   -6.6582    2.8551    0.2120 H   0  0  0  0  0  0  0  0  0  0  0  0
   -0.0001    0.0000    0.0003 H   0  0  0  0  0  0  0  0  0  0  0  0
   -1.6138    2.5578    3.0534 H   0  0  0  0  0  0  0  0  0  0  0  0
   -8.5972    0.8955    4.3383 H   0  0  0  0  0  0  0  0  0  0  0  0
   -6.1572    0.5087    0.8091 H   0  0  0  0  0  0  0  0  0  0  0  0
   -1.8512   -1.6324    0.3330 H   0  0  0  0  0  0  0  0  0  0  0  0
   -2.5856    5.2734    4.3898 H   0  0  0  0  0  0  0  0  0  0  0  0
   -4.1329    5.5113    3.5427 H   0  0  0  0  0  0  0  0  0  0  0  0
   -3.9298    6.1366    5.1745 H   0  0  0  0  0  0  0  0  0  0  0  0
   -7.9154   -1.2994    3.4969 H   0  0  0  0  0  0  0  0  0  0  0  0
   -6.9239   -1.4852    2.0682 H   0  0  0  0  0  0  0  0  0  0  0  0
   -5.6430   -2.1065    4.0788 H   0  0  0  0  0  0  0  0  0  0  0  0
   -5.9891   -0.5806    4.8598 H   0  0  0  0  0  0  0  0  0  0  0  0
   -5.2729    4.0313    5.2001 H   0  0  0  0  0  0  0  0  0  0  0  0
   -3.7238    3.7880    6.0483 H   0  0  0  0  0  0  0  0  0  0  0  0
   -4.1635   -2.0301    1.8899 H   0  0  0  0  0  0  0  0  0  0  0  0
  1  3  2  0  0  0  0
  1  4  1  0  0  0  0
  2  5  2  0  0  0  0
  2  6  1  0  0  0  0
  3  7  1  0  0  0  0
  4  8  2  0  0  0  0
  5  9  1  0  0  0  0
  6 10  2  0  0  0  0
  7 12  2  0  0  0  0
  8 12  1  0  0  0  0
  9 13  2  0  0  0  0
 10 11  1  0  0  0  0
 10 13  1  0  0  0  0
 11 14  2  0  0  0  0
 11 15  1  0  0  0  0
 12 17  1  0  0  0  0
 13 20  1  0  0  0  0
 14 18  1  0  0  0  0
 14 20  1  0  0  0  0
 15 21  2  0  0  0  0
 15 22  1  0  0  0  0
 16 19  1  0  0  0  0
 17 18  1  0  0  0  0
 19 22  1  0  0  0  0
  1 23  1  0  0  0  0
  2 24  1  0  0  0  0
  3 25  1  0  0  0  0
  4 26  1  0  0  0  0
  5 27  1  0  0  0  0
  6 28  1  0  0  0  0
  7 29  1  0  0  0  0
  8 30  1  0  0  0  0
  9 31  1  0  0  0  0
 16 32  1  0  0  0  0
 16 33  1  0  0  0  0
 16 34  1  0  0  0  0
 17 35  1  0  0  0  0
 17 36  1  0  0  0  0
 18 37  1  0  0  0  0
 18 38  1  0  0  0  0
 19 39  1  0  0  0  0
 19 40  1  0  0  0  0
 20 41  1  0  0  0  0
M  END
$$$$
