AVX17629_0
  -OEChem-04011314553D

 63 66  0     1  0  0  0  0  0999 V2000
   -8.8072   -7.4924   -0.4682 C   0  0  0  0  0  0  0  0  0  0  0  0
   -2.3313   -7.1384    1.5392 C   0  0  0  0  0  0  0  0  0  0  0  0
   -8.1205   -6.9282   -1.5432 C   0  0  0  0  0  0  0  0  0  0  0  0
   -9.0653   -6.7308    0.6716 C   0  0  0  0  0  0  0  0  0  0  0  0
   -3.2377   -6.4533    2.3483 C   0  0  0  0  0  0  0  0  0  0  0  0
   -1.8832   -6.5619    0.3507 C   0  0  0  0  0  0  0  0  0  0  0  0
   -7.6918   -5.6025   -1.4785 C   0  0  0  0  0  0  0  0  0  0  0  0
   -8.6365   -5.4050    0.7363 C   0  0  0  0  0  0  0  0  0  0  0  0
   -3.6960   -5.1917    1.9690 C   0  0  0  0  0  0  0  0  0  0  0  0
   -2.3415   -5.3003   -0.0287 C   0  0  0  0  0  0  0  0  0  0  0  0
    1.3294    0.8538   -2.2632 C   0  0  0  0  0  0  0  0  0  0  0  0
    2.3579    0.8702   -3.2084 C   0  0  0  0  0  0  0  0  0  0  0  0
    2.1176   -1.2736   -1.3794 C   0  0  0  0  0  0  0  0  0  0  0  0
   -7.9498   -4.8409   -0.3387 C   0  0  0  0  0  0  0  0  0  0  0  0
   -3.2479   -4.6152    0.7804 C   0  0  0  0  0  0  0  0  0  0  0  0
    1.2100   -0.2119   -1.3539 C   0  0  0  0  0  0  0  0  0  0  0  0
    3.2408   -0.1901   -3.2125 C   0  0  0  0  0  0  0  0  0  0  0  0
    3.1239   -1.2332   -2.3224 C   0  0  0  0  0  0  0  0  0  0  0  0
    2.0170   -2.3893   -0.4500 C   0  0  0  0  0  0  0  0  0  0  0  0
   -5.0057   -3.3374   -0.4819 C   0  0  0  0  0  0  0  0  0  0  0  0
   -1.8142   -1.6803    0.2309 C   0  0  0  0  0  0  0  0  0  0  0  0
    4.8342   -1.6030   -3.5952 C   0  0  0  0  0  0  0  0  0  0  0  0
    1.5530   -5.9552   -1.1999 C   0  0  0  0  0  0  0  0  0  0  0  0
   -7.4883   -3.4139   -0.2683 C   0  0  0  0  0  0  0  0  0  0  0  0
    0.0921   -0.1831   -0.3619 C   0  0  0  0  0  0  0  0  0  0  0  0
    1.7335   -4.7524   -0.2987 C   0  0  0  0  0  0  0  0  0  0  0  0
   -3.7442   -3.2487    0.3688 C   0  0  2  0  0  0  0  0  0  0  0  0
   -6.1595   -3.3020    0.2887 N   0  0  0  0  0  0  0  0  0  0  0  0
   -0.9681   -1.0927   -0.7099 N   0  0  0  0  0  0  0  0  0  0  0  0
   -2.7482   -2.5157   -0.3767 N   0  0  0  0  0  0  0  0  0  0  0  0
    2.0759   -2.2808    0.7813 O   0  0  0  0  0  0  0  0  0  0  0  0
   -4.9776   -3.4654   -1.7043 O   0  0  0  0  0  0  0  0  0  0  0  0
   -1.7444   -1.4847    1.4435 O   0  0  0  0  0  0  0  0  0  0  0  0
    4.2986   -0.3451   -4.0544 O   0  0  0  0  0  0  0  0  0  0  0  0
    4.0938   -2.1719   -2.4958 O   0  0  0  0  0  0  0  0  0  0  0  0
    1.8474   -3.5766   -1.1075 O   0  0  0  0  0  0  0  0  0  0  0  0
   -9.1422   -8.5243   -0.5193 H   0  0  0  0  0  0  0  0  0  0  0  0
   -1.9735   -8.1202    1.8354 H   0  0  0  0  0  0  0  0  0  0  0  0
   -7.9205   -7.5208   -2.4312 H   0  0  0  0  0  0  0  0  0  0  0  0
   -9.6008   -7.1693    1.5084 H   0  0  0  0  0  0  0  0  0  0  0  0
   -3.5859   -6.9016    3.2743 H   0  0  0  0  0  0  0  0  0  0  0  0
   -1.1767   -7.0945   -0.2790 H   0  0  0  0  0  0  0  0  0  0  0  0
   -7.1572   -5.1713   -2.3209 H   0  0  0  0  0  0  0  0  0  0  0  0
   -8.8419   -4.8193    1.6284 H   0  0  0  0  0  0  0  0  0  0  0  0
   -4.4023   -4.6654    2.6056 H   0  0  0  0  0  0  0  0  0  0  0  0
   -1.9870   -4.8590   -0.9564 H   0  0  0  0  0  0  0  0  0  0  0  0
    0.6192    1.6768   -2.2370 H   0  0  0  0  0  0  0  0  0  0  0  0
    2.4538    1.6902   -3.9109 H   0  0  0  0  0  0  0  0  0  0  0  0
    4.8253   -2.3141   -4.4298 H   0  0  0  0  0  0  0  0  0  0  0  0
    5.8711   -1.4474   -3.2765 H   0  0  0  0  0  0  0  0  0  0  0  0
    0.6464   -5.8579   -1.8037 H   0  0  0  0  0  0  0  0  0  0  0  0
    2.4125   -6.0691   -1.8686 H   0  0  0  0  0  0  0  0  0  0  0  0
    1.4863   -6.8742   -0.6081 H   0  0  0  0  0  0  0  0  0  0  0  0
   -7.4747   -2.9628   -1.2665 H   0  0  0  0  0  0  0  0  0  0  0  0
   -8.1626   -2.8129    0.3509 H   0  0  0  0  0  0  0  0  0  0  0  0
    0.4489   -0.4561    0.6398 H   0  0  0  0  0  0  0  0  0  0  0  0
   -0.3463    0.8199   -0.2830 H   0  0  0  0  0  0  0  0  0  0  0  0
    2.6419   -4.8560    0.3023 H   0  0  0  0  0  0  0  0  0  0  0  0
    0.8735   -4.6396    0.3681 H   0  0  0  0  0  0  0  0  0  0  0  0
   -3.9547   -2.6344    1.2526 H   0  0  0  0  0  0  0  0  0  0  0  0
   -6.0824   -3.1943    1.2957 H   0  0  0  0  0  0  0  0  0  0  0  0
   -1.1075   -1.3185   -1.6924 H   0  0  0  0  0  0  0  0  0  0  0  0
   -2.7604   -2.5802   -1.3897 H   0  0  0  0  0  0  0  0  0  0  0  0
  1  3  2  0  0  0  0
  1  4  1  0  0  0  0
  2  5  2  0  0  0  0
  2  6  1  0  0  0  0
  3  7  1  0  0  0  0
  4  8  2  0  0  0  0
  5  9  1  0  0  0  0
  6 10  2  0  0  0  0
  7 14  2  0  0  0  0
  8 14  1  0  0  0  0
  9 15  2  0  0  0  0
 10 15  1  0  0  0  0
 11 12  1  0  0  0  0
 11 16  2  0  0  0  0
 12 17  2  0  0  0  0
 13 16  1  0  0  0  0
 13 18  2  0  0  0  0
 13 19  1  0  0  0  0
 14 24  1  0  0  0  0
 15 27  1  0  0  0  0
 16 25  1  0  0  0  0
 17 18  1  0  0  0  0
 17 34  1  0  0  0  0
 18 35  1  0  0  0  0
 19 31  2  0  0  0  0
 19 36  1  0  0  0  0
 20 27  1  0  0  0  0
 20 28  1  0  0  0  0
 20 32  2  0  0  0  0
 21 29  1  0  0  0  0
 21 30  1  0  0  0  0
 21 33  2  0  0  0  0
 22 34  1  0  0  0  0
 22 35  1  0  0  0  0
 23 26  1  0  0  0  0
 24 28  1  0  0  0  0
 25 29  1  0  0  0  0
 26 36  1  0  0  0  0
 27 30  1  0  0  0  0
  1 37  1  0  0  0  0
  2 38  1  0  0  0  0
  3 39  1  0  0  0  0
  4 40  1  0  0  0  0
  5 41  1  0  0  0  0
  6 42  1  0  0  0  0
  7 43  1  0  0  0  0
  8 44  1  0  0  0  0
  9 45  1  0  0  0  0
 10 46  1  0  0  0  0
 11 47  1  0  0  0  0
 12 48  1  0  0  0  0
 22 49  1  0  0  0  0
 22 50  1  0  0  0  0
 23 51  1  0  0  0  0
 23 52  1  0  0  0  0
 23 53  1  0  0  0  0
 24 54  1  0  0  0  0
 24 55  1  0  0  0  0
 25 56  1  0  0  0  0
 25 57  1  0  0  0  0
 26 58  1  0  0  0  0
 26 59  1  0  0  0  0
 27 60  1  0  0  0  0
 28 61  1  0  0  0  0
 29 62  1  0  0  0  0
 30 63  1  0  0  0  0
M  END
$$$$
