AVX101118_0
  -OEChem-04011314503D

 65 68  0     1  0  0  0  0  0999 V2000
    3.1197   -8.8960   -5.0342 C   0  0  0  0  0  0  0  0  0  0  0  0
    1.7779   -8.9809   -5.4057 C   0  0  0  0  0  0  0  0  0  0  0  0
    3.5404   -7.8896   -4.1648 C   0  0  0  0  0  0  0  0  0  0  0  0
    0.8568   -8.0593   -4.9078 C   0  0  0  0  0  0  0  0  0  0  0  0
   -0.5499   -2.8967   -2.0845 C   0  0  0  0  0  0  0  0  0  0  0  0
    0.0583   -1.6771   -1.7861 C   0  0  0  0  0  0  0  0  0  0  0  0
    2.6194   -6.9680   -3.6670 C   0  0  0  0  0  0  0  0  0  0  0  0
    0.3877   -3.8638   -0.0767 C   0  0  0  0  0  0  0  0  0  0  0  0
    1.2775   -7.0528   -4.0384 C   0  0  0  0  0  0  0  0  0  0  0  0
   -0.3897   -3.9868   -1.2286 C   0  0  0  0  0  0  0  0  0  0  0  0
    0.8251   -1.5494   -0.6275 C   0  0  0  0  0  0  0  0  0  0  0  0
    1.0075   -2.6485    0.2155 C   0  0  0  0  0  0  0  0  0  0  0  0
    3.0950   -5.9060   -2.7433 C   0  0  0  0  0  0  0  0  0  0  0  0
    0.5624   -5.0230    0.8223 C   0  0  0  0  0  0  0  0  0  0  0  0
    8.2870   -2.7114   -2.8016 C   0  0  0  0  0  0  0  0  0  0  0  0
    7.7389   -3.8381   -3.6719 C   0  0  0  0  0  0  0  0  0  0  0  0
    7.6115   -2.6795   -1.4342 C   0  0  0  0  0  0  0  0  0  0  0  0
    6.2192   -3.7628   -3.7998 C   0  0  0  0  0  0  0  0  0  0  0  0
    6.0915   -2.6025   -1.5582 C   0  0  0  0  0  0  0  0  0  0  0  0
    1.8386   -0.2078    0.9722 C   0  0  0  0  0  0  0  0  0  0  0  0
    2.6233   -1.4439    1.3662 C   0  0  0  0  0  0  0  0  0  0  0  0
    5.5355   -3.7395   -2.4260 C   0  0  0  0  0  0  0  0  0  0  0  0
   -0.6361   -7.7162   -1.8781 C   0  0  0  0  0  0  0  0  0  0  0  0
    0.2702   -6.0789   -3.5208 C   0  0  0  0  0  0  0  0  0  0  0  0
   -1.0638   -5.2816   -1.5752 C   0  0  0  0  0  0  0  0  0  0  0  0
    4.0212   -3.6101   -2.5793 C   0  0  0  0  0  0  0  0  0  0  0  0
    3.5172   -4.7102   -3.3300 N   0  0  0  0  0  0  0  0  0  0  0  0
   -0.1089   -6.3219   -2.1025 N   0  3  1  0  0  0  0  0  0  0  0  0
   -0.2787   -5.1902    1.7796 O   0  5  0  0  0  0  0  0  0  0  0  0
    3.1156   -6.1266   -1.5353 O   0  0  0  0  0  0  0  0  0  0  0  0
    1.5490   -5.8197    0.6129 O   0  0  0  0  0  0  0  0  0  0  0  0
    1.3802   -0.3215   -0.3780 O   0  0  0  0  0  0  0  0  0  0  0  0
    1.7752   -2.5954    1.3496 O   0  0  0  0  0  0  0  0  0  0  0  0
    3.8374   -9.6136   -5.4215 H   0  0  0  0  0  0  0  0  0  0  0  0
    1.4510   -9.7646   -6.0829 H   0  0  0  0  0  0  0  0  0  0  0  0
    4.5890   -7.8336   -3.8838 H   0  0  0  0  0  0  0  0  0  0  0  0
   -0.1864   -8.1346   -5.2031 H   0  0  0  0  0  0  0  0  0  0  0  0
   -1.1513   -2.9860   -2.9856 H   0  0  0  0  0  0  0  0  0  0  0  0
   -0.0787   -0.8309   -2.4538 H   0  0  0  0  0  0  0  0  0  0  0  0
    9.3685   -2.8356   -2.6757 H   0  0  0  0  0  0  0  0  0  0  0  0
    8.1309   -1.7509   -3.3078 H   0  0  0  0  0  0  0  0  0  0  0  0
    8.1957   -3.7896   -4.6670 H   0  0  0  0  0  0  0  0  0  0  0  0
    8.0209   -4.8053   -3.2379 H   0  0  0  0  0  0  0  0  0  0  0  0
    7.8862   -3.5793   -0.8699 H   0  0  0  0  0  0  0  0  0  0  0  0
    7.9790   -1.8199   -0.8623 H   0  0  0  0  0  0  0  0  0  0  0  0
    5.9498   -2.8620   -4.3663 H   0  0  0  0  0  0  0  0  0  0  0  0
    5.8620   -4.6212   -4.3812 H   0  0  0  0  0  0  0  0  0  0  0  0
    5.6444   -2.6422   -0.5577 H   0  0  0  0  0  0  0  0  0  0  0  0
    5.8145   -1.6326   -1.9911 H   0  0  0  0  0  0  0  0  0  0  0  0
    0.9706   -0.0544    1.6253 H   0  0  0  0  0  0  0  0  0  0  0  0
    2.4742    0.6810    1.0338 H   0  0  0  0  0  0  0  0  0  0  0  0
    3.4662   -1.6205    0.6866 H   0  0  0  0  0  0  0  0  0  0  0  0
    3.0188   -1.3361    2.3809 H   0  0  0  0  0  0  0  0  0  0  0  0
    5.7431   -4.6923   -1.9208 H   0  0  0  0  0  0  0  0  0  0  0  0
   -1.5457   -7.8286   -2.4710 H   0  0  0  0  0  0  0  0  0  0  0  0
    0.1329   -8.4203   -2.2015 H   0  0  0  0  0  0  0  0  0  0  0  0
   -0.8462   -7.8264   -0.8125 H   0  0  0  0  0  0  0  0  0  0  0  0
    0.6450   -5.0483   -3.5688 H   0  0  0  0  0  0  0  0  0  0  0  0
   -0.6609   -6.1168   -4.1011 H   0  0  0  0  0  0  0  0  0  0  0  0
   -1.5539   -5.7197   -0.6991 H   0  0  0  0  0  0  0  0  0  0  0  0
   -1.8275   -5.1358   -2.3467 H   0  0  0  0  0  0  0  0  0  0  0  0
    3.8030   -2.6885   -3.1022 H   0  0  0  0  0  0  0  0  0  0  0  0
    3.5676   -3.6081   -1.5975 H   0  0  0  0  0  0  0  0  0  0  0  0
    3.5227   -4.6401   -4.3522 H   0  0  0  0  0  0  0  0  0  0  0  0
    0.7488   -6.2422   -1.5322 H   0  0  0  0  0  0  0  0  0  0  0  0
  1  2  2  0  0  0  0
  1  3  1  0  0  0  0
  2  4  1  0  0  0  0
  3  7  2  0  0  0  0
  4  9  2  0  0  0  0
  5  6  1  0  0  0  0
  5 10  2  0  0  0  0
  6 11  2  0  0  0  0
  7  9  1  0  0  0  0
  7 13  1  0  0  0  0
  8 10  1  0  0  0  0
  8 12  2  0  0  0  0
  8 14  1  0  0  0  0
  9 24  1  0  0  0  0
 10 25  1  0  0  0  0
 11 12  1  0  0  0  0
 11 32  1  0  0  0  0
 12 33  1  0  0  0  0
 13 27  1  0  0  0  0
 13 30  2  0  0  0  0
 14 29  1  0  0  0  0
 14 31  2  0  0  0  0
 15 16  1  0  0  0  0
 15 17  1  0  0  0  0
 16 18  1  0  0  0  0
 17 19  1  0  0  0  0
 18 22  1  0  0  0  0
 19 22  1  0  0  0  0
 20 21  1  0  0  0  0
 20 32  1  0  0  0  0
 21 33  1  0  0  0  0
 22 26  1  0  0  0  0
 23 28  1  0  0  0  0
 24 28  1  0  0  0  0
 25 28  1  0  0  0  0
 26 27  1  0  0  0  0
  1 34  1  0  0  0  0
  2 35  1  0  0  0  0
  3 36  1  0  0  0  0
  4 37  1  0  0  0  0
  5 38  1  0  0  0  0
  6 39  1  0  0  0  0
 15 40  1  0  0  0  0
 15 41  1  0  0  0  0
 16 42  1  0  0  0  0
 16 43  1  0  0  0  0
 17 44  1  0  0  0  0
 17 45  1  0  0  0  0
 18 46  1  0  0  0  0
 18 47  1  0  0  0  0
 19 48  1  0  0  0  0
 19 49  1  0  0  0  0
 20 50  1  0  0  0  0
 20 51  1  0  0  0  0
 21 52  1  0  0  0  0
 21 53  1  0  0  0  0
 22 54  1  0  0  0  0
 23 55  1  0  0  0  0
 23 56  1  0  0  0  0
 23 57  1  0  0  0  0
 24 58  1  0  0  0  0
 24 59  1  0  0  0  0
 25 60  1  0  0  0  0
 25 61  1  0  0  0  0
 26 62  1  0  0  0  0
 26 63  1  0  0  0  0
 27 64  1  0  0  0  0
 28 65  1  0  0  0  0
M  CHG  2  28   1  29  -1
M  END
$$$$
