AVX17369_1
  -OEChem-04011314523D

 35 37  0     1  0  0  0  0  0999 V2000
   -1.9204    0.9555    0.2371 C   0  0  0  0  0  0  0  0  0  0  0  0
   -1.0710   -0.1533    0.1009 C   0  0  0  0  0  0  0  0  0  0  0  0
   -3.6605   -7.2457   -1.1555 C   0  0  0  0  0  0  0  0  0  0  0  0
   -5.0095   -7.6005   -1.1620 C   0  0  0  0  0  0  0  0  0  0  0  0
   -3.3002    0.7836    0.3651 C   0  0  0  0  0  0  0  0  0  0  0  0
   -1.5898   -1.4496    0.0889 C   0  0  0  0  0  0  0  0  0  0  0  0
   -3.2933   -5.9000   -1.1662 C   0  0  0  0  0  0  0  0  0  0  0  0
   -5.6239   -5.2641   -1.1899 C   0  0  0  0  0  0  0  0  0  0  0  0
   -5.9912   -6.6098   -1.1792 C   0  0  0  0  0  0  0  0  0  0  0  0
   -3.8051   -0.5062    0.3639 C   0  0  0  0  0  0  0  0  0  0  0  0
   -2.9600   -1.6126    0.2208 C   0  0  0  0  0  0  0  0  0  0  0  0
   -4.2750   -4.9093   -1.1834 C   0  0  0  0  0  0  0  0  0  0  0  0
   -7.4146   -6.9836   -1.1863 C   0  0  0  0  0  0  0  0  0  0  0  0
   -5.2395   -0.9289    0.4558 C   0  0  0  0  0  0  0  0  0  0  0  0
   -3.7410   -2.8990    0.2166 C   0  0  1  0  0  0  0  0  0  0  0  0
   -5.0962   -2.4238    0.7918 C   0  0  1  0  0  0  0  0  0  0  0  0
   -3.8789   -3.4574   -1.1952 C   0  0  0  0  0  0  0  0  0  0  0  0
   -8.3009   -6.0492   -1.2019 O   0  5  0  0  0  0  0  0  0  0  0  0
   -7.7275   -8.2329   -1.1763 O   0  0  0  0  0  0  0  0  0  0  0  0
   -5.0816   -2.5609    2.2158 O   0  0  0  0  0  0  0  0  0  0  0  0
   -1.4991    1.9572    0.2394 H   0  0  0  0  0  0  0  0  0  0  0  0
   -0.0000   -0.0000   -0.0004 H   0  0  0  0  0  0  0  0  0  0  0  0
   -2.8964   -8.0173   -1.1419 H   0  0  0  0  0  0  0  0  0  0  0  0
   -5.2848   -8.6520   -1.1531 H   0  0  0  0  0  0  0  0  0  0  0  0
   -3.9556    1.6424    0.4627 H   0  0  0  0  0  0  0  0  0  0  0  0
   -0.9316   -2.3045   -0.0232 H   0  0  0  0  0  0  0  0  0  0  0  0
   -2.2399   -5.6328   -1.1609 H   0  0  0  0  0  0  0  0  0  0  0  0
   -6.3882   -4.4905   -1.2032 H   0  0  0  0  0  0  0  0  0  0  0  0
   -5.7728   -0.3755    1.2343 H   0  0  0  0  0  0  0  0  0  0  0  0
   -5.7207   -0.7871   -0.5174 H   0  0  0  0  0  0  0  0  0  0  0  0
   -3.2643   -3.6324    0.8769 H   0  0  0  0  0  0  0  0  0  0  0  0
   -5.9502   -3.0027    0.4250 H   0  0  0  0  0  0  0  0  0  0  0  0
   -2.9319   -3.3348   -1.7323 H   0  0  0  0  0  0  0  0  0  0  0  0
   -4.6222   -2.8738   -1.7497 H   0  0  0  0  0  0  0  0  0  0  0  0
   -4.9908   -3.5079    2.3957 H   0  0  0  0  0  0  0  0  0  0  0  0
  1  2  2  0  0  0  0
  1  5  1  0  0  0  0
  2  6  1  0  0  0  0
  3  4  1  0  0  0  0
  3  7  2  0  0  0  0
  4  9  2  0  0  0  0
  5 10  2  0  0  0  0
  6 11  2  0  0  0  0
  7 12  1  0  0  0  0
  8  9  1  0  0  0  0
  8 12  2  0  0  0  0
  9 13  1  0  0  0  0
 10 11  1  0  0  0  0
 10 14  1  0  0  0  0
 11 15  1  0  0  0  0
 12 17  1  0  0  0  0
 13 18  1  0  0  0  0
 13 19  2  0  0  0  0
 14 16  1  0  0  0  0
 15 16  1  0  0  0  0
 15 17  1  0  0  0  0
 16 20  1  0  0  0  0
  1 21  1  0  0  0  0
  2 22  1  0  0  0  0
  3 23  1  0  0  0  0
  4 24  1  0  0  0  0
  5 25  1  0  0  0  0
  6 26  1  0  0  0  0
  7 27  1  0  0  0  0
  8 28  1  0  0  0  0
 14 29  1  0  0  0  0
 14 30  1  0  0  0  0
 15 31  1  0  0  0  0
 16 32  1  0  0  0  0
 17 33  1  0  0  0  0
 17 34  1  0  0  0  0
 20 35  1  0  0  0  0
M  CHG  1  18  -1
M  END
$$$$
