AVX101140_0
  -OEChem-04011314513D

 37 40  0     0  0  0  0  0  0999 V2000
    0.2979   -1.1769    1.7792 C   0  0  0  0  0  0  0  0  0  0  0  0
   -0.3483    2.9297    1.6278 C   0  0  0  0  0  0  0  0  0  0  0  0
    0.5196   -2.4525    2.2989 C   0  0  0  0  0  0  0  0  0  0  0  0
   -0.2544    4.1024    2.3862 C   0  0  0  0  0  0  0  0  0  0  0  0
    2.1406    4.2723    1.9562 C   0  0  0  0  0  0  0  0  0  0  0  0
    2.0183    3.1161    1.2153 C   0  0  0  0  0  0  0  0  0  0  0  0
    0.2866   -2.0843   -0.4619 C   0  0  0  0  0  0  0  0  0  0  0  0
    0.1764   -0.9939    0.4014 C   0  0  0  0  0  0  0  0  0  0  0  0
    0.8084    2.4465    1.0443 C   0  0  0  0  0  0  0  0  0  0  0  0
    0.6167   -3.5455    1.4372 C   0  0  0  0  0  0  0  0  0  0  0  0
    0.5219   -3.3582    0.0560 C   0  0  0  0  0  0  0  0  0  0  0  0
    0.9776    4.7667    2.5485 C   0  0  0  0  0  0  0  0  0  0  0  0
    3.0276    2.3576    0.4813 C   0  0  0  0  0  0  0  0  0  0  0  0
    2.3080    1.1699   -0.1463 C   0  0  0  0  0  0  0  0  0  0  0  0
    0.1665   -1.8848   -1.9208 C   0  0  0  0  0  0  0  0  0  0  0  0
    0.5543   -5.8390    1.0877 C   0  0  0  0  0  0  0  0  0  0  0  0
    1.2151   -5.5522   -0.2464 C   0  0  0  0  0  0  0  0  0  0  0  0
   -0.0697    0.3909   -0.1241 C   0  0  0  0  0  0  0  0  0  0  0  0
    0.9860    1.3031    0.2430 N   0  0  0  0  0  0  0  0  0  0  0  0
   -0.9978   -1.9694   -2.4586 O   0  5  0  0  0  0  0  0  0  0  0  0
    4.2077    2.5811    0.3614 O   0  0  0  0  0  0  0  0  0  0  0  0
    2.8806    0.3457   -0.8259 O   0  0  0  0  0  0  0  0  0  0  0  0
    1.2309   -1.6347   -2.5963 O   0  0  0  0  0  0  0  0  0  0  0  0
    0.8145   -4.7756    2.0082 O   0  0  0  0  0  0  0  0  0  0  0  0
    0.6415   -4.3858   -0.8429 O   0  0  0  0  0  0  0  0  0  0  0  0
    1.0533    6.3488    3.5830 Br  0  0  0  0  0  0  0  0  0  0  0  0
    0.2167   -0.3317    2.4577 H   0  0  0  0  0  0  0  0  0  0  0  0
   -1.3035    2.4300    1.5117 H   0  0  0  0  0  0  0  0  0  0  0  0
    0.6044   -2.5874    3.3737 H   0  0  0  0  0  0  0  0  0  0  0  0
   -1.1556    4.4954    2.8519 H   0  0  0  0  0  0  0  0  0  0  0  0
    3.0983    4.7680    2.0686 H   0  0  0  0  0  0  0  0  0  0  0  0
   -0.5317   -5.9555    0.9845 H   0  0  0  0  0  0  0  0  0  0  0  0
    0.9573   -6.7597    1.5209 H   0  0  0  0  0  0  0  0  0  0  0  0
    2.2950   -5.3936   -0.1361 H   0  0  0  0  0  0  0  0  0  0  0  0
    1.0609   -6.3887   -0.9351 H   0  0  0  0  0  0  0  0  0  0  0  0
   -0.1426    0.3817   -1.2171 H   0  0  0  0  0  0  0  0  0  0  0  0
   -1.0113    0.7959    0.2613 H   0  0  0  0  0  0  0  0  0  0  0  0
  1  3  2  0  0  0  0
  1  8  1  0  0  0  0
  2  4  1  0  0  0  0
  2  9  2  0  0  0  0
  3 10  1  0  0  0  0
  4 12  2  0  0  0  0
  5  6  2  0  0  0  0
  5 12  1  0  0  0  0
  6  9  1  0  0  0  0
  6 13  1  0  0  0  0
  7  8  2  0  0  0  0
  7 11  1  0  0  0  0
  7 15  1  0  0  0  0
  8 18  1  0  0  0  0
  9 19  1  0  0  0  0
 10 11  2  0  0  0  0
 10 24  1  0  0  0  0
 11 25  1  0  0  0  0
 12 26  1  0  0  0  0
 13 14  1  0  0  0  0
 13 21  2  0  0  0  0
 14 19  1  0  0  0  0
 14 22  2  0  0  0  0
 15 20  1  0  0  0  0
 15 23  2  0  0  0  0
 16 17  1  0  0  0  0
 16 24  1  0  0  0  0
 17 25  1  0  0  0  0
 18 19  1  0  0  0  0
  1 27  1  0  0  0  0
  2 28  1  0  0  0  0
  3 29  1  0  0  0  0
  4 30  1  0  0  0  0
  5 31  1  0  0  0  0
 16 32  1  0  0  0  0
 16 33  1  0  0  0  0
 17 34  1  0  0  0  0
 17 35  1  0  0  0  0
 18 36  1  0  0  0  0
 18 37  1  0  0  0  0
M  CHG  1  20  -1
M  END
$$$$
