AVX17288_0
  -OEChem-04011314523D

 42 44  0     1  0  0  0  0  0999 V2000
   10.5053   -1.0074    3.2930 C   0  0  0  0  0  0  0  0  0  0  0  0
   10.2440    0.2765    2.8145 C   0  0  0  0  0  0  0  0  0  0  0  0
    9.4956   -1.9698    3.2952 C   0  0  0  0  0  0  0  0  0  0  0  0
    8.9730    0.5980    2.3383 C   0  0  0  0  0  0  0  0  0  0  0  0
    5.0480    0.6319    0.5889 C   0  0  0  0  0  0  0  0  0  0  0  0
    8.2246   -1.6483    2.8190 C   0  0  0  0  0  0  0  0  0  0  0  0
    7.9633   -0.3644    2.3405 C   0  0  0  0  0  0  0  0  0  0  0  0
    4.6250    0.2938    1.8884 C   0  0  0  0  0  0  0  0  0  0  0  0
    6.4047    0.4180    0.6029 C   0  0  0  0  0  0  0  0  0  0  0  0
    7.1783   -2.6891    2.8357 C   0  0  0  0  0  0  0  0  0  0  0  0
    0.9102   -3.4012    2.4644 C   0  0  0  0  0  0  0  0  0  0  0  0
   -0.0654   -2.8808    1.4162 C   0  0  0  0  0  0  0  0  0  0  0  0
    1.0697   -2.3843    3.5914 C   0  0  0  0  0  0  0  0  0  0  0  0
    0.3277   -1.4814    0.9648 C   0  0  0  0  0  0  0  0  0  0  0  0
    1.3941   -0.9944    3.0453 C   0  0  2  0  0  0  0  0  0  0  0  0
    7.4147    0.5931   -0.4592 C   0  0  0  0  0  0  0  0  0  0  0  0
    3.2289    0.3417    2.4362 C   0  0  0  0  0  0  0  0  0  0  0  0
    5.6314   -0.1048    2.6709 N   0  0  0  0  0  0  0  0  0  0  0  0
    6.7003   -0.0185    1.8608 N   0  0  0  0  0  0  0  0  0  0  0  0
    6.4360   -2.7992    3.8800 O   0  5  0  0  0  0  0  0  0  0  0  0
    7.0477   -3.4475    1.8055 O   0  0  0  0  0  0  0  0  0  0  0  0
    0.4252   -0.5899    2.0751 O   0  0  0  0  0  0  0  0  0  0  0  0
    2.7218   -0.9813    2.5290 O   0  0  0  0  0  0  0  0  0  0  0  0
   11.4948   -1.2578    3.6639 H   0  0  0  0  0  0  0  0  0  0  0  0
   11.0308    1.0257    2.8138 H   0  0  0  0  0  0  0  0  0  0  0  0
    9.7105   -2.9669    3.6711 H   0  0  0  0  0  0  0  0  0  0  0  0
    8.7842    1.6035    1.9696 H   0  0  0  0  0  0  0  0  0  0  0  0
    4.4527    0.9825   -0.2419 H   0  0  0  0  0  0  0  0  0  0  0  0
    0.5555   -4.3561    2.8677 H   0  0  0  0  0  0  0  0  0  0  0  0
    1.8841   -3.5914    1.9972 H   0  0  0  0  0  0  0  0  0  0  0  0
   -0.1030   -3.5615    0.5594 H   0  0  0  0  0  0  0  0  0  0  0  0
   -1.0691   -2.8475    1.8576 H   0  0  0  0  0  0  0  0  0  0  0  0
    0.1270   -2.3380    4.1503 H   0  0  0  0  0  0  0  0  0  0  0  0
    1.8550   -2.7217    4.2769 H   0  0  0  0  0  0  0  0  0  0  0  0
    1.2774   -1.4921    0.4176 H   0  0  0  0  0  0  0  0  0  0  0  0
   -0.4342   -1.0836    0.2867 H   0  0  0  0  0  0  0  0  0  0  0  0
    1.3536   -0.2753    3.8708 H   0  0  0  0  0  0  0  0  0  0  0  0
    7.8365    1.6114   -0.4423 H   0  0  0  0  0  0  0  0  0  0  0  0
    8.2518   -0.1182   -0.3555 H   0  0  0  0  0  0  0  0  0  0  0  0
    6.9922    0.4219   -1.4641 H   0  0  0  0  0  0  0  0  0  0  0  0
    3.2138    0.8006    3.4307 H   0  0  0  0  0  0  0  0  0  0  0  0
    2.5764    0.9316    1.7835 H   0  0  0  0  0  0  0  0  0  0  0  0
  1  2  1  0  0  0  0
  1  3  2  0  0  0  0
  2  4  2  0  0  0  0
  3  6  1  0  0  0  0
  4  7  1  0  0  0  0
  5  8  1  0  0  0  0
  5  9  2  0  0  0  0
  6  7  2  0  0  0  0
  6 10  1  0  0  0  0
  7 19  1  0  0  0  0
  8 17  1  0  0  0  0
  8 18  2  0  0  0  0
  9 16  1  0  0  0  0
  9 19  1  0  0  0  0
 10 20  1  0  0  0  0
 10 21  2  0  0  0  0
 11 12  1  0  0  0  0
 11 13  1  0  0  0  0
 12 14  1  0  0  0  0
 13 15  1  0  0  0  0
 14 22  1  0  0  0  0
 15 22  1  0  0  0  0
 15 23  1  0  0  0  0
 17 23  1  0  0  0  0
 18 19  1  0  0  0  0
  1 24  1  0  0  0  0
  2 25  1  0  0  0  0
  3 26  1  0  0  0  0
  4 27  1  0  0  0  0
  5 28  1  0  0  0  0
 11 29  1  0  0  0  0
 11 30  1  0  0  0  0
 12 31  1  0  0  0  0
 12 32  1  0  0  0  0
 13 33  1  0  0  0  0
 13 34  1  0  0  0  0
 14 35  1  0  0  0  0
 14 36  1  0  0  0  0
 15 37  1  0  0  0  0
 16 38  1  0  0  0  0
 16 39  1  0  0  0  0
 16 40  1  0  0  0  0
 17 41  1  0  0  0  0
 17 42  1  0  0  0  0
M  CHG  1  20  -1
M  END
$$$$
