AVX17261_1
  -OEChem-04011314523D

 26 27  0     1  0  0  0  0  0999 V2000
    2.5591   -1.3257    1.7260 C   0  0  0  0  0  0  0  0  0  0  0  0
    1.4707   -2.1378    2.0139 C   0  0  0  0  0  0  0  0  0  0  0  0
    2.3944   -0.2097    0.9048 C   0  0  0  0  0  0  0  0  0  0  0  0
    0.2204   -1.8287    1.4840 C   0  0  0  0  0  0  0  0  0  0  0  0
    1.1428    0.1165    0.3445 C   0  0  0  0  0  0  0  0  0  0  0  0
    0.0440   -0.7026    0.6604 C   0  0  0  0  0  0  0  0  0  0  0  0
   -1.1043    1.1016   -1.6860 C   0  0  0  0  0  0  0  0  0  0  0  0
    1.0744    1.3715   -0.4846 C   0  0  0  0  0  0  0  0  0  0  0  0
   -1.7218    0.8488   -0.3212 C   0  0  1  0  0  0  0  0  0  0  0  0
   -3.2475    0.8883   -0.3922 C   0  0  0  0  0  0  0  0  0  0  0  0
    0.2643    1.2581   -1.6790 N   0  0  0  0  0  0  0  0  0  0  0  0
   -1.3311   -0.5161    0.1525 N   0  3  0  0  0  0  0  0  0  0  0  0
   -1.7655    1.1357   -2.7232 O   0  0  0  0  0  0  0  0  0  0  0  0
    3.5363   -1.5563    2.1400 H   0  0  0  0  0  0  0  0  0  0  0  0
    1.5928   -3.0085    2.6509 H   0  0  0  0  0  0  0  0  0  0  0  0
    3.2631    0.4143    0.7034 H   0  0  0  0  0  0  0  0  0  0  0  0
   -0.6212   -2.4770    1.7189 H   0  0  0  0  0  0  0  0  0  0  0  0
    0.7000    2.2001    0.1263 H   0  0  0  0  0  0  0  0  0  0  0  0
    2.0740    1.6542   -0.8348 H   0  0  0  0  0  0  0  0  0  0  0  0
   -1.3957    1.5824    0.4230 H   0  0  0  0  0  0  0  0  0  0  0  0
   -3.6009    0.1667   -1.1266 H   0  0  0  0  0  0  0  0  0  0  0  0
   -3.5771    1.8842   -0.6828 H   0  0  0  0  0  0  0  0  0  0  0  0
   -3.6681    0.6425    0.5813 H   0  0  0  0  0  0  0  0  0  0  0  0
    0.7389    1.2967   -2.5760 H   0  0  0  0  0  0  0  0  0  0  0  0
   -1.4762   -1.2081   -0.5970 H   0  0  0  0  0  0  0  0  0  0  0  0
   -1.9642   -0.7913    0.9177 H   0  0  0  0  0  0  0  0  0  0  0  0
  1  2  2  0  0  0  0
  1  3  1  0  0  0  0
  2  4  1  0  0  0  0
  3  5  2  0  0  0  0
  4  6  2  0  0  0  0
  5  6  1  0  0  0  0
  5  8  1  0  0  0  0
  6 12  1  0  0  0  0
  7  9  1  0  0  0  0
  7 11  1  0  0  0  0
  7 13  2  0  0  0  0
  8 11  1  0  0  0  0
  9 10  1  0  0  0  0
  9 12  1  0  0  0  0
  1 14  1  0  0  0  0
  2 15  1  0  0  0  0
  3 16  1  0  0  0  0
  4 17  1  0  0  0  0
  8 18  1  0  0  0  0
  8 19  1  0  0  0  0
  9 20  1  0  0  0  0
 10 21  1  0  0  0  0
 10 22  1  0  0  0  0
 10 23  1  0  0  0  0
 11 24  1  0  0  0  0
 12 25  1  0  0  0  0
 12 26  1  0  0  0  0
M  CHG  1  12   1
M  END
$$$$
