AVX17260_1
  -OEChem-04011314523D

 35 38  0     1  0  0  0  0  0999 V2000
   -0.9770    7.8561    0.7026 C   0  0  0  0  0  0  0  0  0  0  0  0
   -0.5912    8.0479    2.0420 C   0  0  0  0  0  0  0  0  0  0  0  0
   -0.3299    6.9134   -0.1028 C   0  0  0  0  0  0  0  0  0  0  0  0
    4.1775    3.9125   -1.8162 C   0  0  0  0  0  0  0  0  0  0  0  0
    0.4475    7.3004    2.5994 C   0  0  0  0  0  0  0  0  0  0  0  0
    4.7275    2.8395   -2.5216 C   0  0  0  0  0  0  0  0  0  0  0  0
    2.1670    3.8391   -3.1876 C   0  0  0  0  0  0  0  0  0  0  0  0
    0.7009    6.1793    0.4542 C   0  0  0  0  0  0  0  0  0  0  0  0
    2.9046    4.4094   -2.1472 C   0  0  0  0  0  0  0  0  0  0  0  0
    1.0696    6.3773    1.7831 C   0  0  0  0  0  0  0  0  0  0  0  0
    3.9788    2.2944   -3.5443 C   0  0  0  0  0  0  0  0  0  0  0  0
    2.7328    2.7807   -3.8683 C   0  0  0  0  0  0  0  0  0  0  0  0
    2.4938    4.7372    1.0202 C   0  0  0  0  0  0  0  0  0  0  0  0
    0.8323    4.3400   -3.5530 C   0  0  0  0  0  0  0  0  0  0  0  0
    3.1956    1.1354   -5.1951 C   0  0  0  0  0  0  0  0  0  0  0  0
    1.5589    5.1040   -0.1489 C   0  0  2  0  0  0  0  0  0  0  0  0
    2.3543    5.5685   -1.3569 C   0  0  0  0  0  0  0  0  0  0  0  0
    2.1207    5.5290    2.1117 N   0  0  0  0  0  0  0  0  0  0  0  0
   -0.2005    3.8289   -2.9778 O   0  5  0  0  0  0  0  0  0  0  0  0
    3.3885    3.9061    0.9827 O   0  0  0  0  0  0  0  0  0  0  0  0
    0.7407    5.2729   -4.4363 O   0  0  0  0  0  0  0  0  0  0  0  0
    4.3482    1.2510   -4.3359 O   0  0  0  0  0  0  0  0  0  0  0  0
    2.1664    2.1028   -4.9035 O   0  0  0  0  0  0  0  0  0  0  0  0
   -1.7898    8.4488    0.2910 H   0  0  0  0  0  0  0  0  0  0  0  0
   -1.1102    8.7863    2.6474 H   0  0  0  0  0  0  0  0  0  0  0  0
   -0.6347    6.7666   -1.1331 H   0  0  0  0  0  0  0  0  0  0  0  0
    4.7450    4.3619   -1.0047 H   0  0  0  0  0  0  0  0  0  0  0  0
    0.7469    7.4454    3.6310 H   0  0  0  0  0  0  0  0  0  0  0  0
    5.7086    2.4533   -2.2695 H   0  0  0  0  0  0  0  0  0  0  0  0
    3.5179    1.2686   -6.2342 H   0  0  0  0  0  0  0  0  0  0  0  0
    2.7739    0.1298   -5.0833 H   0  0  0  0  0  0  0  0  0  0  0  0
    0.9464    4.2266   -0.3846 H   0  0  0  0  0  0  0  0  0  0  0  0
    3.1781    6.2172   -1.0331 H   0  0  0  0  0  0  0  0  0  0  0  0
    1.7203    6.1874   -2.0045 H   0  0  0  0  0  0  0  0  0  0  0  0
    2.5575    5.5037    3.0255 H   0  0  0  0  0  0  0  0  0  0  0  0
  1  2  1  0  0  0  0
  1  3  2  0  0  0  0
  2  5  2  0  0  0  0
  3  8  1  0  0  0  0
  4  6  2  0  0  0  0
  4  9  1  0  0  0  0
  5 10  1  0  0  0  0
  6 11  1  0  0  0  0
  7  9  2  0  0  0  0
  7 12  1  0  0  0  0
  7 14  1  0  0  0  0
  8 10  2  0  0  0  0
  8 16  1  0  0  0  0
  9 17  1  0  0  0  0
 10 18  1  0  0  0  0
 11 12  2  0  0  0  0
 11 22  1  0  0  0  0
 12 23  1  0  0  0  0
 13 16  1  0  0  0  0
 13 18  1  0  0  0  0
 13 20  2  0  0  0  0
 14 19  1  0  0  0  0
 14 21  2  0  0  0  0
 15 22  1  0  0  0  0
 15 23  1  0  0  0  0
 16 17  1  0  0  0  0
  1 24  1  0  0  0  0
  2 25  1  0  0  0  0
  3 26  1  0  0  0  0
  4 27  1  0  0  0  0
  5 28  1  0  0  0  0
  6 29  1  0  0  0  0
 15 30  1  0  0  0  0
 15 31  1  0  0  0  0
 16 32  1  0  0  0  0
 17 33  1  0  0  0  0
 17 34  1  0  0  0  0
 18 35  1  0  0  0  0
M  CHG  1  19  -1
M  END
$$$$
