AVX17542_1
  -OEChem-04011314533D

 57 58  0     1  0  0  0  0  0999 V2000
   -2.5816    2.6097   -1.4340 C   0  0  0  0  0  0  0  0  0  0  0  0
   -2.8069    3.5984   -2.3948 C   0  0  0  0  0  0  0  0  0  0  0  0
   -3.1356    0.8641   -3.0384 C   0  0  0  0  0  0  0  0  0  0  0  0
   -2.7449    1.2504   -1.7539 C   0  0  0  0  0  0  0  0  0  0  0  0
   -3.1918    3.1904   -3.6554 C   0  0  0  0  0  0  0  0  0  0  0  0
   -3.3516    1.8599   -3.9686 C   0  0  0  0  0  0  0  0  0  0  0  0
   -3.3125   -0.5518   -3.3987 C   0  0  0  0  0  0  0  0  0  0  0  0
   -0.7198   -2.1045    2.4610 C   0  0  0  0  0  0  0  0  0  0  0  0
   -3.7966    3.0391   -5.7274 C   0  0  0  0  0  0  0  0  0  0  0  0
    2.0052    0.2419   -1.2482 C   0  0  0  0  0  0  0  0  0  0  0  0
    2.1417    1.4838    0.9196 C   0  0  0  0  0  0  0  0  0  0  0  0
   -2.4894    0.2190   -0.6808 C   0  0  0  0  0  0  0  0  0  0  0  0
   -1.5106   -2.0132    3.7559 C   0  0  0  0  0  0  0  0  0  0  0  0
   -2.0140   -0.6056    4.0722 C   0  0  0  0  0  0  0  0  0  0  0  0
   -0.8693    0.3889    4.2874 C   0  0  0  0  0  0  0  0  0  0  0  0
   -0.1114    0.7480    0.0855 C   0  0  0  0  0  0  0  0  0  0  0  0
   -0.9724   -1.6815    0.0179 C   0  0  0  0  0  0  0  0  0  0  0  0
   -1.4071    1.7843    4.5697 C   0  0  0  0  0  0  0  0  0  0  0  0
    1.3900    0.3982    0.1429 C   0  0  0  0  0  0  0  0  0  0  0  0
   -1.0240   -0.2830   -0.6244 C   0  0  1  0  0  0  0  0  0  0  0  0
   -1.4796   -1.7139    1.3623 N   0  0  0  0  0  0  0  0  0  0  0  0
   -0.2695    2.7028    4.8160 N   0  3  0  0  0  0  0  0  0  0  0  0
   -2.3037   -1.2039   -3.8635 O   0  5  0  0  0  0  0  0  0  0  0  0
   -4.4703   -1.0925   -3.2378 O   0  0  0  0  0  0  0  0  0  0  0  0
    0.4540   -2.4618    2.4133 O   0  0  0  0  0  0  0  0  0  0  0  0
   -3.4533    4.0055   -4.7133 O   0  0  0  0  0  0  0  0  0  0  0  0
   -3.7335    1.6754   -5.2617 O   0  0  0  0  0  0  0  0  0  0  0  0
   -2.2769    2.9020   -0.4319 H   0  0  0  0  0  0  0  0  0  0  0  0
   -2.6820    4.6476   -2.1523 H   0  0  0  0  0  0  0  0  0  0  0  0
   -4.8152    3.2437   -6.0766 H   0  0  0  0  0  0  0  0  0  0  0  0
   -3.1055    3.1543   -6.5703 H   0  0  0  0  0  0  0  0  0  0  0  0
    1.8955    1.1593   -1.8362 H   0  0  0  0  0  0  0  0  0  0  0  0
    3.0740    0.0127   -1.1766 H   0  0  0  0  0  0  0  0  0  0  0  0
    1.5363   -0.5765   -1.8023 H   0  0  0  0  0  0  0  0  0  0  0  0
    2.0457    2.4550    0.4225 H   0  0  0  0  0  0  0  0  0  0  0  0
    3.2090    1.2475    0.9842 H   0  0  0  0  0  0  0  0  0  0  0  0
    1.7539    1.5853    1.9390 H   0  0  0  0  0  0  0  0  0  0  0  0
   -3.1648   -0.6261   -0.8709 H   0  0  0  0  0  0  0  0  0  0  0  0
   -2.7875    0.6205    0.2964 H   0  0  0  0  0  0  0  0  0  0  0  0
   -0.8983   -2.3917    4.5828 H   0  0  0  0  0  0  0  0  0  0  0  0
   -2.3734   -2.6826    3.6508 H   0  0  0  0  0  0  0  0  0  0  0  0
   -2.6734   -0.2483    3.2722 H   0  0  0  0  0  0  0  0  0  0  0  0
   -2.6186   -0.6513    4.9866 H   0  0  0  0  0  0  0  0  0  0  0  0
   -0.2475    0.0546    5.1273 H   0  0  0  0  0  0  0  0  0  0  0  0
   -0.2222    0.4163    3.4028 H   0  0  0  0  0  0  0  0  0  0  0  0
   -0.4758    0.9016    1.1099 H   0  0  0  0  0  0  0  0  0  0  0  0
   -0.2136    1.7178   -0.4181 H   0  0  0  0  0  0  0  0  0  0  0  0
   -1.5662   -2.3924   -0.5671 H   0  0  0  0  0  0  0  0  0  0  0  0
    0.0505   -2.0684    0.0451 H   0  0  0  0  0  0  0  0  0  0  0  0
   -2.0343    1.8088    5.4658 H   0  0  0  0  0  0  0  0  0  0  0  0
   -1.9633    2.1891    3.7191 H   0  0  0  0  0  0  0  0  0  0  0  0
    1.5250   -0.5421    0.6895 H   0  0  0  0  0  0  0  0  0  0  0  0
   -0.6696   -0.3978   -1.6566 H   0  0  0  0  0  0  0  0  0  0  0  0
   -2.4521   -1.4470    1.5117 H   0  0  0  0  0  0  0  0  0  0  0  0
    0.3783    2.3089    5.5071 H   0  0  0  0  0  0  0  0  0  0  0  0
   -0.5982    3.6074    5.1716 H   0  0  0  0  0  0  0  0  0  0  0  0
    0.2571    2.8757    3.9526 H   0  0  0  0  0  0  0  0  0  0  0  0
  1  2  2  0  0  0  0
  1  4  1  0  0  0  0
  2  5  1  0  0  0  0
  3  4  2  0  0  0  0
  3  6  1  0  0  0  0
  3  7  1  0  0  0  0
  4 12  1  0  0  0  0
  5  6  2  0  0  0  0
  5 26  1  0  0  0  0
  6 27  1  0  0  0  0
  7 23  1  0  0  0  0
  7 24  2  0  0  0  0
  8 13  1  0  0  0  0
  8 21  1  0  0  0  0
  8 25  2  0  0  0  0
  9 26  1  0  0  0  0
  9 27  1  0  0  0  0
 10 19  1  0  0  0  0
 11 19  1  0  0  0  0
 12 20  1  0  0  0  0
 13 14  1  0  0  0  0
 14 15  1  0  0  0  0
 15 18  1  0  0  0  0
 16 19  1  0  0  0  0
 16 20  1  0  0  0  0
 17 20  1  0  0  0  0
 17 21  1  0  0  0  0
 18 22  1  0  0  0  0
  1 28  1  0  0  0  0
  2 29  1  0  0  0  0
  9 30  1  0  0  0  0
  9 31  1  0  0  0  0
 10 32  1  0  0  0  0
 10 33  1  0  0  0  0
 10 34  1  0  0  0  0
 11 35  1  0  0  0  0
 11 36  1  0  0  0  0
 11 37  1  0  0  0  0
 12 38  1  0  0  0  0
 12 39  1  0  0  0  0
 13 40  1  0  0  0  0
 13 41  1  0  0  0  0
 14 42  1  0  0  0  0
 14 43  1  0  0  0  0
 15 44  1  0  0  0  0
 15 45  1  0  0  0  0
 16 46  1  0  0  0  0
 16 47  1  0  0  0  0
 17 48  1  0  0  0  0
 17 49  1  0  0  0  0
 18 50  1  0  0  0  0
 18 51  1  0  0  0  0
 19 52  1  0  0  0  0
 20 53  1  0  0  0  0
 21 54  1  0  0  0  0
 22 55  1  0  0  0  0
 22 56  1  0  0  0  0
 22 57  1  0  0  0  0
M  CHG  2  22   1  23  -1
M  END
$$$$
