AVX16984_0
  -OEChem-04011314523D

 31 33  0     0  0  0  0  0  0999 V2000
    0.4419   -0.9093    6.6520 C   0  0  0  0  0  0  0  0  0  0  0  0
   -2.1518   -7.8957    2.7834 C   0  0  0  0  0  0  0  0  0  0  0  0
   -1.7998   -7.2531    3.9703 C   0  0  0  0  0  0  0  0  0  0  0  0
   -0.9199   -1.2711    6.6335 C   0  0  0  0  0  0  0  0  0  0  0  0
    1.2930   -1.2727    5.6073 C   0  0  0  0  0  0  0  0  0  0  0  0
   -2.5193   -7.1454    1.6665 C   0  0  0  0  0  0  0  0  0  0  0  0
   -1.8152   -5.8601    4.0402 C   0  0  0  0  0  0  0  0  0  0  0  0
   -1.4583   -2.0039    5.5694 C   0  0  0  0  0  0  0  0  0  0  0  0
    0.7356   -1.9940    4.5730 C   0  0  0  0  0  0  0  0  0  0  0  0
   -2.5348   -5.7524    1.7364 C   0  0  0  0  0  0  0  0  0  0  0  0
   -2.1828   -5.1097    2.9233 C   0  0  0  0  0  0  0  0  0  0  0  0
   -0.6084   -2.3600    4.5384 C   0  0  0  0  0  0  0  0  0  0  0  0
    1.3465   -2.5160    3.3535 C   0  0  0  0  0  0  0  0  0  0  0  0
    0.2411   -3.2296    2.5844 C   0  0  0  0  0  0  0  0  0  0  0  0
   -2.9270   -4.9790    0.5441 C   0  0  0  0  0  0  0  0  0  0  0  0
   -2.1918   -3.6118    3.0261 C   0  0  0  0  0  0  0  0  0  0  0  0
   -0.8922   -3.0863    3.3668 N   0  0  0  0  0  0  0  0  0  0  0  0
   -4.1689   -4.6847    0.3801 O   0  5  0  0  0  0  0  0  0  0  0  0
    2.4907   -2.4285    2.9793 O   0  0  0  0  0  0  0  0  0  0  0  0
    0.4348   -3.7726    1.5183 O   0  0  0  0  0  0  0  0  0  0  0  0
   -2.0137   -4.6259   -0.2907 O   0  0  0  0  0  0  0  0  0  0  0  0
    0.8316   -0.3400    7.4917 H   0  0  0  0  0  0  0  0  0  0  0  0
   -2.1392   -8.9802    2.7293 H   0  0  0  0  0  0  0  0  0  0  0  0
   -1.5136   -7.8372    4.8399 H   0  0  0  0  0  0  0  0  0  0  0  0
   -1.5611   -0.9755    7.4601 H   0  0  0  0  0  0  0  0  0  0  0  0
    2.3407   -0.9973    5.6167 H   0  0  0  0  0  0  0  0  0  0  0  0
   -2.7905   -7.6567    0.7463 H   0  0  0  0  0  0  0  0  0  0  0  0
   -1.5415   -5.3686    4.9701 H   0  0  0  0  0  0  0  0  0  0  0  0
   -2.5082   -2.2742    5.5692 H   0  0  0  0  0  0  0  0  0  0  0  0
   -2.4993   -3.1614    2.0760 H   0  0  0  0  0  0  0  0  0  0  0  0
   -2.9001   -3.2746    3.7902 H   0  0  0  0  0  0  0  0  0  0  0  0
  1  4  2  0  0  0  0
  1  5  1  0  0  0  0
  2  3  1  0  0  0  0
  2  6  2  0  0  0  0
  3  7  2  0  0  0  0
  4  8  1  0  0  0  0
  5  9  2  0  0  0  0
  6 10  1  0  0  0  0
  7 11  1  0  0  0  0
  8 12  2  0  0  0  0
  9 12  1  0  0  0  0
  9 13  1  0  0  0  0
 10 11  2  0  0  0  0
 10 15  1  0  0  0  0
 11 16  1  0  0  0  0
 12 17  1  0  0  0  0
 13 14  1  0  0  0  0
 13 19  2  0  0  0  0
 14 17  1  0  0  0  0
 14 20  2  0  0  0  0
 15 18  1  0  0  0  0
 15 21  2  0  0  0  0
 16 17  1  0  0  0  0
  1 22  1  0  0  0  0
  2 23  1  0  0  0  0
  3 24  1  0  0  0  0
  4 25  1  0  0  0  0
  5 26  1  0  0  0  0
  6 27  1  0  0  0  0
  7 28  1  0  0  0  0
  8 29  1  0  0  0  0
 16 30  1  0  0  0  0
 16 31  1  0  0  0  0
M  CHG  1  18  -1
M  END
$$$$
