AVX101133_0
  -OEChem-04011314513D

 60 63  0     1  0  0  0  0  0999 V2000
    1.0544   -2.0969   -3.7616 C   0  0  0  0  0  0  0  0  0  0  0  0
    1.3254   -1.2874   -4.8737 C   0  0  0  0  0  0  0  0  0  0  0  0
    0.6444   -1.5308   -2.5516 C   0  0  0  0  0  0  0  0  0  0  0  0
   -0.8787   -1.9064    0.3746 C   0  0  0  0  0  0  0  0  0  0  0  0
    1.1904    0.0990   -4.7903 C   0  0  0  0  0  0  0  0  0  0  0  0
   -0.6897   -3.2087    0.8381 C   0  0  0  0  0  0  0  0  0  0  0  0
    0.5088   -0.1515   -2.4755 C   0  0  0  0  0  0  0  0  0  0  0  0
    0.1764   -0.9939    0.4014 C   0  0  0  0  0  0  0  0  0  0  0  0
    1.4211   -1.3775    0.9013 C   0  0  0  0  0  0  0  0  0  0  0  0
    0.7749    0.6531   -3.5881 C   0  0  0  0  0  0  0  0  0  0  0  0
    0.5584   -3.5971    1.3260 C   0  0  0  0  0  0  0  0  0  0  0  0
    1.6072   -2.6756    1.3777 C   0  0  0  0  0  0  0  0  0  0  0  0
    0.0897    0.7038   -1.3665 C   0  0  0  0  0  0  0  0  0  0  0  0
   -0.0579    0.3310   -0.0904 C   0  0  0  0  0  0  0  0  0  0  0  0
    2.5420   -0.4131    0.9398 C   0  0  0  0  0  0  0  0  0  0  0  0
   -2.0433    3.6463   -1.9635 C   0  0  0  0  0  0  0  0  0  0  0  0
    0.6169    2.1129   -3.2811 C   0  0  0  0  0  0  0  0  0  0  0  0
    2.0595   -5.2734    1.8942 C   0  0  0  0  0  0  0  0  0  0  0  0
    2.8253   -4.1967    2.6380 C   0  0  0  0  0  0  0  0  0  0  0  0
   -0.0870    2.1031   -1.9112 C   0  0  1  0  0  0  0  0  0  0  0  0
   -3.5561    3.6195   -2.1089 C   0  0  0  0  0  0  0  0  0  0  0  0
   -4.2070    4.9998   -2.0307 C   0  0  0  0  0  0  0  0  0  0  0  0
   -5.7303    4.9365   -2.1878 C   0  0  0  0  0  0  0  0  0  0  0  0
   -6.3495    6.3365   -2.1299 C   0  0  0  0  0  0  0  0  0  0  0  0
   -7.8646    6.3367   -2.2917 C   0  0  0  0  0  0  0  0  0  0  0  0
   -1.5011    2.3717   -2.0412 N   0  0  0  0  0  0  0  0  0  0  0  0
   -8.5067    5.5493   -1.2132 N   0  3  0  0  0  0  0  0  0  0  0  0
    3.3214   -0.3391   -0.0783 O   0  5  0  0  0  0  0  0  0  0  0  0
    2.6909    0.3113    1.9899 O   0  0  0  0  0  0  0  0  0  0  0  0
   -1.4035    4.6780   -1.7790 O   0  0  0  0  0  0  0  0  0  0  0  0
    0.6880   -4.8946    1.7480 O   0  0  0  0  0  0  0  0  0  0  0  0
    2.8455   -2.9868    1.8757 O   0  0  0  0  0  0  0  0  0  0  0  0
    1.1648   -3.1749   -3.8425 H   0  0  0  0  0  0  0  0  0  0  0  0
    1.6473   -1.7437   -5.8059 H   0  0  0  0  0  0  0  0  0  0  0  0
    0.4349   -2.1711   -1.7010 H   0  0  0  0  0  0  0  0  0  0  0  0
   -1.8557   -1.6203   -0.0083 H   0  0  0  0  0  0  0  0  0  0  0  0
    1.4108    0.7249   -5.6486 H   0  0  0  0  0  0  0  0  0  0  0  0
   -1.5147   -3.9150    0.8066 H   0  0  0  0  0  0  0  0  0  0  0  0
   -0.4061    1.0834    0.6150 H   0  0  0  0  0  0  0  0  0  0  0  0
    1.6104    2.5686   -3.1992 H   0  0  0  0  0  0  0  0  0  0  0  0
    0.0391    2.6315   -4.0528 H   0  0  0  0  0  0  0  0  0  0  0  0
    2.4807   -5.4550    0.8974 H   0  0  0  0  0  0  0  0  0  0  0  0
    2.0872   -6.2140    2.4532 H   0  0  0  0  0  0  0  0  0  0  0  0
    2.3777   -3.9850    3.6172 H   0  0  0  0  0  0  0  0  0  0  0  0
    3.8624   -4.5080    2.7965 H   0  0  0  0  0  0  0  0  0  0  0  0
    0.3312    2.8706   -1.2513 H   0  0  0  0  0  0  0  0  0  0  0  0
   -3.8217    3.1277   -3.0520 H   0  0  0  0  0  0  0  0  0  0  0  0
   -3.9440    2.9983   -1.2921 H   0  0  0  0  0  0  0  0  0  0  0  0
   -3.9702    5.4391   -1.0538 H   0  0  0  0  0  0  0  0  0  0  0  0
   -3.7809    5.6651   -2.7911 H   0  0  0  0  0  0  0  0  0  0  0  0
   -6.1542    4.3159   -1.3890 H   0  0  0  0  0  0  0  0  0  0  0  0
   -5.9827    4.4558   -3.1387 H   0  0  0  0  0  0  0  0  0  0  0  0
   -6.1107    6.7924   -1.1612 H   0  0  0  0  0  0  0  0  0  0  0  0
   -5.8936    6.9727   -2.8987 H   0  0  0  0  0  0  0  0  0  0  0  0
   -8.2846    7.3458   -2.2472 H   0  0  0  0  0  0  0  0  0  0  0  0
   -8.1546    5.8653   -3.2354 H   0  0  0  0  0  0  0  0  0  0  0  0
   -2.1289    1.5885   -2.1973 H   0  0  0  0  0  0  0  0  0  0  0  0
   -7.8452    5.3582   -0.4522 H   0  0  0  0  0  0  0  0  0  0  0  0
   -8.8469    4.6482   -1.5679 H   0  0  0  0  0  0  0  0  0  0  0  0
   -9.3072    6.0534   -0.8152 H   0  0  0  0  0  0  0  0  0  0  0  0
  1  2  2  0  0  0  0
  1  3  1  0  0  0  0
  2  5  1  0  0  0  0
  3  7  2  0  0  0  0
  4  6  2  0  0  0  0
  4  8  1  0  0  0  0
  5 10  2  0  0  0  0
  6 11  1  0  0  0  0
  7 10  1  0  0  0  0
  7 13  1  0  0  0  0
  8  9  2  0  0  0  0
  8 14  1  0  0  0  0
  9 12  1  0  0  0  0
  9 15  1  0  0  0  0
 10 17  1  0  0  0  0
 11 12  2  0  0  0  0
 11 31  1  0  0  0  0
 12 32  1  0  0  0  0
 13 14  2  0  0  0  0
 13 20  1  0  0  0  0
 15 28  1  0  0  0  0
 15 29  2  0  0  0  0
 16 21  1  0  0  0  0
 16 26  1  0  0  0  0
 16 30  2  0  0  0  0
 17 20  1  0  0  0  0
 18 19  1  0  0  0  0
 18 31  1  0  0  0  0
 19 32  1  0  0  0  0
 20 26  1  0  0  0  0
 21 22  1  0  0  0  0
 22 23  1  0  0  0  0
 23 24  1  0  0  0  0
 24 25  1  0  0  0  0
 25 27  1  0  0  0  0
  1 33  1  0  0  0  0
  2 34  1  0  0  0  0
  3 35  1  0  0  0  0
  4 36  1  0  0  0  0
  5 37  1  0  0  0  0
  6 38  1  0  0  0  0
 14 39  1  0  0  0  0
 17 40  1  0  0  0  0
 17 41  1  0  0  0  0
 18 42  1  0  0  0  0
 18 43  1  0  0  0  0
 19 44  1  0  0  0  0
 19 45  1  0  0  0  0
 20 46  1  0  0  0  0
 21 47  1  0  0  0  0
 21 48  1  0  0  0  0
 22 49  1  0  0  0  0
 22 50  1  0  0  0  0
 23 51  1  0  0  0  0
 23 52  1  0  0  0  0
 24 53  1  0  0  0  0
 24 54  1  0  0  0  0
 25 55  1  0  0  0  0
 25 56  1  0  0  0  0
 26 57  1  0  0  0  0
 27 58  1  0  0  0  0
 27 59  1  0  0  0  0
 27 60  1  0  0  0  0
M  CHG  2  27   1  28  -1
M  END
$$$$
