AVX101122_0
  -OEChem-04011314513D

 61 63  0     1  0  0  0  0  0999 V2000
    2.8271    3.8090    0.1339 C   0  0  0  0  0  0  0  0  0  0  0  0
    1.8520    4.4186   -0.6554 C   0  0  0  0  0  0  0  0  0  0  0  0
    2.7642   -1.9992   -6.1486 C   0  0  0  0  0  0  0  0  0  0  0  0
    2.9467    2.4193    0.1454 C   0  0  0  0  0  0  0  0  0  0  0  0
    0.9963    3.6386   -1.4332 C   0  0  0  0  0  0  0  0  0  0  0  0
    2.1097   -1.4168   -5.0632 C   0  0  0  0  0  0  0  0  0  0  0  0
   -0.8165   -2.6269    0.0606 C   0  0  0  0  0  0  0  0  0  0  0  0
    0.9240   -3.3115   -1.4688 C   0  0  0  0  0  0  0  0  0  0  0  0
    2.1095   -2.1210   -7.3743 C   0  0  0  0  0  0  0  0  0  0  0  0
   -1.7644   -3.2837   -0.7241 C   0  0  0  0  0  0  0  0  0  0  0  0
   -0.0239   -3.9683   -2.2536 C   0  0  0  0  0  0  0  0  0  0  0  0
    2.0910    1.6392   -0.6324 C   0  0  0  0  0  0  0  0  0  0  0  0
    0.1459   -1.0780   -6.4292 C   0  0  0  0  0  0  0  0  0  0  0  0
    0.5277   -2.6408   -0.3118 C   0  0  0  0  0  0  0  0  0  0  0  0
    1.1158    2.2488   -1.4217 C   0  0  0  0  0  0  0  0  0  0  0  0
    0.8006   -0.9562   -5.2035 C   0  0  0  0  0  0  0  0  0  0  0  0
   -1.3681   -3.9544   -1.8811 C   0  0  0  0  0  0  0  0  0  0  0  0
    0.8004   -1.6604   -7.5145 C   0  0  0  0  0  0  0  0  0  0  0  0
    2.2370    0.1902   -0.6011 C   0  0  0  0  0  0  0  0  0  0  0  0
   -1.2409   -0.5951   -6.5818 C   0  0  0  0  0  0  0  0  0  0  0  0
    1.0080    1.9273   -4.5641 C   0  0  0  0  0  0  0  0  0  0  0  0
   -1.8193   -5.2620   -3.8156 C   0  0  0  0  0  0  0  0  0  0  0  0
    0.9260   -2.3987   -9.7717 C   0  0  0  0  0  0  0  0  0  0  0  0
    1.5483   -1.9345    0.5330 C   0  0  0  0  0  0  0  0  0  0  0  0
    0.1819    1.4342   -2.2673 C   0  0  0  0  0  0  0  0  0  0  0  0
    0.1216   -0.3351   -4.0185 C   0  0  0  0  0  0  0  0  0  0  0  0
    1.4935   -0.5005    0.3614 N   0  0  0  0  0  0  0  0  0  0  0  0
    0.8364    0.8803   -3.5007 N   0  3  1  0  0  0  0  0  0  0  0  0
   -2.2060   -1.4089   -6.3380 O   0  5  0  0  0  0  0  0  0  0  0  0
    3.0088   -0.3813   -1.3898 O   0  0  0  0  0  0  0  0  0  0  0  0
   -1.4316    0.6210   -6.9531 O   0  0  0  0  0  0  0  0  0  0  0  0
   -2.2930   -4.5963   -2.6460 O   0  0  0  0  0  0  0  0  0  0  0  0
    0.1786   -1.7911   -8.7203 O   0  0  0  0  0  0  0  0  0  0  0  0
    3.4939    4.4160    0.7397 H   0  0  0  0  0  0  0  0  0  0  0  0
    1.7592    5.5008   -0.6637 H   0  0  0  0  0  0  0  0  0  0  0  0
    3.7838   -2.3568   -6.0395 H   0  0  0  0  0  0  0  0  0  0  0  0
    3.7100    1.9562    0.7656 H   0  0  0  0  0  0  0  0  0  0  0  0
    0.2402    4.1236   -2.0449 H   0  0  0  0  0  0  0  0  0  0  0  0
    2.6279   -1.3262   -4.1122 H   0  0  0  0  0  0  0  0  0  0  0  0
   -1.1341   -2.1069    0.9603 H   0  0  0  0  0  0  0  0  0  0  0  0
    1.9692   -3.3275   -1.7668 H   0  0  0  0  0  0  0  0  0  0  0  0
    2.6258   -2.5764   -8.2154 H   0  0  0  0  0  0  0  0  0  0  0  0
   -2.8101   -3.2695   -0.4286 H   0  0  0  0  0  0  0  0  0  0  0  0
    0.2911   -4.4892   -3.1534 H   0  0  0  0  0  0  0  0  0  0  0  0
    0.0141    2.2613   -4.8673 H   0  0  0  0  0  0  0  0  0  0  0  0
    1.5842    2.7488   -4.1342 H   0  0  0  0  0  0  0  0  0  0  0  0
    1.5403    1.4700   -5.4003 H   0  0  0  0  0  0  0  0  0  0  0  0
   -2.6589   -5.7322   -4.3334 H   0  0  0  0  0  0  0  0  0  0  0  0
   -1.0825   -6.0179   -3.5325 H   0  0  0  0  0  0  0  0  0  0  0  0
   -1.3509   -4.5290   -4.4767 H   0  0  0  0  0  0  0  0  0  0  0  0
    0.3149   -2.4415  -10.6766 H   0  0  0  0  0  0  0  0  0  0  0  0
    1.2242   -3.4067   -9.4726 H   0  0  0  0  0  0  0  0  0  0  0  0
    1.8187   -1.7993   -9.9657 H   0  0  0  0  0  0  0  0  0  0  0  0
    1.3890   -2.1534    1.5945 H   0  0  0  0  0  0  0  0  0  0  0  0
    2.5621   -2.2633    0.2817 H   0  0  0  0  0  0  0  0  0  0  0  0
   -0.2128    0.5782   -1.7094 H   0  0  0  0  0  0  0  0  0  0  0  0
   -0.6702    2.0336   -2.6055 H   0  0  0  0  0  0  0  0  0  0  0  0
   -0.8973   -0.0189   -4.2667 H   0  0  0  0  0  0  0  0  0  0  0  0
    0.0577   -1.0418   -3.1840 H   0  0  0  0  0  0  0  0  0  0  0  0
    0.9271    0.0221    1.0215 H   0  0  0  0  0  0  0  0  0  0  0  0
    1.7804    0.5766   -3.2264 H   0  0  0  0  0  0  0  0  0  0  0  0
  1  2  2  0  0  0  0
  1  4  1  0  0  0  0
  2  5  1  0  0  0  0
  3  6  1  0  0  0  0
  3  9  2  0  0  0  0
  4 12  2  0  0  0  0
  5 15  2  0  0  0  0
  6 16  2  0  0  0  0
  7 10  1  0  0  0  0
  7 14  2  0  0  0  0
  8 11  2  0  0  0  0
  8 14  1  0  0  0  0
  9 18  1  0  0  0  0
 10 17  2  0  0  0  0
 11 17  1  0  0  0  0
 12 15  1  0  0  0  0
 12 19  1  0  0  0  0
 13 16  1  0  0  0  0
 13 18  2  0  0  0  0
 13 20  1  0  0  0  0
 14 24  1  0  0  0  0
 15 25  1  0  0  0  0
 16 26  1  0  0  0  0
 17 32  1  0  0  0  0
 18 33  1  0  0  0  0
 19 27  1  0  0  0  0
 19 30  2  0  0  0  0
 20 29  1  0  0  0  0
 20 31  2  0  0  0  0
 21 28  1  0  0  0  0
 22 32  1  0  0  0  0
 23 33  1  0  0  0  0
 24 27  1  0  0  0  0
 25 28  1  0  0  0  0
 26 28  1  0  0  0  0
  1 34  1  0  0  0  0
  2 35  1  0  0  0  0
  3 36  1  0  0  0  0
  4 37  1  0  0  0  0
  5 38  1  0  0  0  0
  6 39  1  0  0  0  0
  7 40  1  0  0  0  0
  8 41  1  0  0  0  0
  9 42  1  0  0  0  0
 10 43  1  0  0  0  0
 11 44  1  0  0  0  0
 21 45  1  0  0  0  0
 21 46  1  0  0  0  0
 21 47  1  0  0  0  0
 22 48  1  0  0  0  0
 22 49  1  0  0  0  0
 22 50  1  0  0  0  0
 23 51  1  0  0  0  0
 23 52  1  0  0  0  0
 23 53  1  0  0  0  0
 24 54  1  0  0  0  0
 24 55  1  0  0  0  0
 25 56  1  0  0  0  0
 25 57  1  0  0  0  0
 26 58  1  0  0  0  0
 26 59  1  0  0  0  0
 27 60  1  0  0  0  0
 28 61  1  0  0  0  0
M  CHG  2  28   1  29  -1
M  END
$$$$
