AVX101122_1
  -OEChem-04011314513D

 61 63  0     1  0  0  0  0  0999 V2000
    5.3515   -0.9477   -1.7191 C   0  0  0  0  0  0  0  0  0  0  0  0
    5.0255   -1.2806   -3.0338 C   0  0  0  0  0  0  0  0  0  0  0  0
    0.6993   -5.7698   -0.7480 C   0  0  0  0  0  0  0  0  0  0  0  0
    4.3584   -0.5067   -0.8445 C   0  0  0  0  0  0  0  0  0  0  0  0
    3.7063   -1.1726   -3.4739 C   0  0  0  0  0  0  0  0  0  0  0  0
    1.0575   -4.6452   -1.4912 C   0  0  0  0  0  0  0  0  0  0  0  0
   -1.6220   -0.2582    1.3586 C   0  0  0  0  0  0  0  0  0  0  0  0
   -0.5629   -2.4279    1.4479 C   0  0  0  0  0  0  0  0  0  0  0  0
   -0.4609   -6.4757   -1.0663 C   0  0  0  0  0  0  0  0  0  0  0  0
   -2.8493   -0.8679    1.0988 C   0  0  0  0  0  0  0  0  0  0  0  0
   -1.7903   -3.0377    1.1882 C   0  0  0  0  0  0  0  0  0  0  0  0
    3.0392   -0.3986   -1.2846 C   0  0  0  0  0  0  0  0  0  0  0  0
   -0.9048   -4.9322   -2.8711 C   0  0  0  0  0  0  0  0  0  0  0  0
   -0.4787   -1.0382    1.5331 C   0  0  0  0  0  0  0  0  0  0  0  0
    2.7131   -0.7315   -2.5993 C   0  0  0  0  0  0  0  0  0  0  0  0
    0.2555   -4.2264   -2.5528 C   0  0  0  0  0  0  0  0  0  0  0  0
   -2.9335   -2.2576    1.0136 C   0  0  0  0  0  0  0  0  0  0  0  0
   -1.2630   -6.0569   -2.1279 C   0  0  0  0  0  0  0  0  0  0  0  0
    2.0220    0.0652   -0.3508 C   0  0  0  0  0  0  0  0  0  0  0  0
   -1.7589   -4.4909   -3.9917 C   0  0  0  0  0  0  0  0  0  0  0  0
   -1.0358   -1.3378   -2.6177 C   0  0  0  0  0  0  0  0  0  0  0  0
   -4.1461   -4.2772    0.6874 C   0  0  0  0  0  0  0  0  0  0  0  0
   -2.6788   -7.8952   -1.6065 C   0  0  0  0  0  0  0  0  0  0  0  0
    0.8423   -0.3821    1.8133 C   0  0  0  0  0  0  0  0  0  0  0  0
    1.3027   -0.6241   -3.0994 C   0  0  0  0  0  0  0  0  0  0  0  0
    0.6653   -3.0126   -3.3337 C   0  0  0  0  0  0  0  0  0  0  0  0
    1.8280   -0.6985    0.8048 N   0  0  0  0  0  0  0  0  0  0  0  0
    0.4148   -1.7272   -2.5981 N   0  3  2  0  0  0  0  0  0  0  0  0
   -2.7058   -3.6550   -3.7513 O   0  5  0  0  0  0  0  0  0  0  0  0
    1.3556    1.0837   -0.6014 O   0  0  0  0  0  0  0  0  0  0  0  0
   -1.5240   -4.9592   -5.1658 O   0  0  0  0  0  0  0  0  0  0  0  0
   -4.1314   -2.8525    0.7614 O   0  0  0  0  0  0  0  0  0  0  0  0
   -2.3934   -6.7598   -2.4205 O   0  0  0  0  0  0  0  0  0  0  0  0
    6.3787   -1.0319   -1.3757 H   0  0  0  0  0  0  0  0  0  0  0  0
    5.7993   -1.6237   -3.7144 H   0  0  0  0  0  0  0  0  0  0  0  0
    1.3244   -6.0965    0.0778 H   0  0  0  0  0  0  0  0  0  0  0  0
    4.6255   -0.2493    0.1773 H   0  0  0  0  0  0  0  0  0  0  0  0
    3.4629   -1.4350   -4.5001 H   0  0  0  0  0  0  0  0  0  0  0  0
    1.9633   -4.1017   -1.2358 H   0  0  0  0  0  0  0  0  0  0  0  0
   -1.5656    0.8251    1.4232 H   0  0  0  0  0  0  0  0  0  0  0  0
    0.3227   -3.0436    1.5824 H   0  0  0  0  0  0  0  0  0  0  0  0
   -0.7338   -7.3508   -0.4823 H   0  0  0  0  0  0  0  0  0  0  0  0
   -3.7364   -0.2549    0.9640 H   0  0  0  0  0  0  0  0  0  0  0  0
   -1.8493   -4.1205    1.1234 H   0  0  0  0  0  0  0  0  0  0  0  0
   -1.3197   -1.1601   -3.6566 H   0  0  0  0  0  0  0  0  0  0  0  0
   -1.6089   -2.1624   -2.1896 H   0  0  0  0  0  0  0  0  0  0  0  0
   -1.1464   -0.4310   -2.0201 H   0  0  0  0  0  0  0  0  0  0  0  0
   -5.1625   -4.6217    0.4814 H   0  0  0  0  0  0  0  0  0  0  0  0
   -3.7928   -4.6958    1.6331 H   0  0  0  0  0  0  0  0  0  0  0  0
   -3.4844   -4.5981   -0.1206 H   0  0  0  0  0  0  0  0  0  0  0  0
   -3.6056   -8.3641   -1.9459 H   0  0  0  0  0  0  0  0  0  0  0  0
   -2.7770   -7.5818   -0.5641 H   0  0  0  0  0  0  0  0  0  0  0  0
   -1.8578   -8.6107   -1.6940 H   0  0  0  0  0  0  0  0  0  0  0  0
    0.7327    0.7073    1.8478 H   0  0  0  0  0  0  0  0  0  0  0  0
    1.2411   -0.6997    2.7825 H   0  0  0  0  0  0  0  0  0  0  0  0
    0.8417    0.3183   -2.7846 H   0  0  0  0  0  0  0  0  0  0  0  0
    1.2668   -0.6640   -4.1934 H   0  0  0  0  0  0  0  0  0  0  0  0
    1.7344   -3.0364   -3.5704 H   0  0  0  0  0  0  0  0  0  0  0  0
    0.1157   -2.9463   -4.2789 H   0  0  0  0  0  0  0  0  0  0  0  0
    2.3563   -1.5560    0.9287 H   0  0  0  0  0  0  0  0  0  0  0  0
    0.6662   -1.8909   -1.6138 H   0  0  0  0  0  0  0  0  0  0  0  0
  1  2  2  0  0  0  0
  1  4  1  0  0  0  0
  2  5  1  0  0  0  0
  3  6  1  0  0  0  0
  3  9  2  0  0  0  0
  4 12  2  0  0  0  0
  5 15  2  0  0  0  0
  6 16  2  0  0  0  0
  7 10  1  0  0  0  0
  7 14  2  0  0  0  0
  8 11  2  0  0  0  0
  8 14  1  0  0  0  0
  9 18  1  0  0  0  0
 10 17  2  0  0  0  0
 11 17  1  0  0  0  0
 12 15  1  0  0  0  0
 12 19  1  0  0  0  0
 13 16  1  0  0  0  0
 13 18  2  0  0  0  0
 13 20  1  0  0  0  0
 14 24  1  0  0  0  0
 15 25  1  0  0  0  0
 16 26  1  0  0  0  0
 17 32  1  0  0  0  0
 18 33  1  0  0  0  0
 19 27  1  0  0  0  0
 19 30  2  0  0  0  0
 20 29  1  0  0  0  0
 20 31  2  0  0  0  0
 21 28  1  0  0  0  0
 22 32  1  0  0  0  0
 23 33  1  0  0  0  0
 24 27  1  0  0  0  0
 25 28  1  0  0  0  0
 26 28  1  0  0  0  0
  1 34  1  0  0  0  0
  2 35  1  0  0  0  0
  3 36  1  0  0  0  0
  4 37  1  0  0  0  0
  5 38  1  0  0  0  0
  6 39  1  0  0  0  0
  7 40  1  0  0  0  0
  8 41  1  0  0  0  0
  9 42  1  0  0  0  0
 10 43  1  0  0  0  0
 11 44  1  0  0  0  0
 21 45  1  0  0  0  0
 21 46  1  0  0  0  0
 21 47  1  0  0  0  0
 22 48  1  0  0  0  0
 22 49  1  0  0  0  0
 22 50  1  0  0  0  0
 23 51  1  0  0  0  0
 23 52  1  0  0  0  0
 23 53  1  0  0  0  0
 24 54  1  0  0  0  0
 24 55  1  0  0  0  0
 25 56  1  0  0  0  0
 25 57  1  0  0  0  0
 26 58  1  0  0  0  0
 26 59  1  0  0  0  0
 27 60  1  0  0  0  0
 28 61  1  0  0  0  0
M  CHG  2  28   1  29  -1
M  END
$$$$
