AVX38669_0
  -OEChem-04011314553D

 46 48  0     1  0  0  0  0  0999 V2000
    0.7042   -5.7151   -0.3109 C   0  0  0  0  0  0  0  0  0  0  0  0
    1.8124   -4.8684   -0.2890 C   0  0  0  0  0  0  0  0  0  0  0  0
   -0.4375   -5.3887    0.4212 C   0  0  0  0  0  0  0  0  0  0  0  0
    1.7791   -3.6954    0.4651 C   0  0  0  0  0  0  0  0  0  0  0  0
   -0.4707   -4.2157    1.1753 C   0  0  0  0  0  0  0  0  0  0  0  0
   -2.5996    2.7318    1.7845 C   0  0  0  0  0  0  0  0  0  0  0  0
   -2.9143    3.9118    2.4627 C   0  0  0  0  0  0  0  0  0  0  0  0
   -4.9451    2.3679    1.2417 C   0  0  0  0  0  0  0  0  0  0  0  0
    0.6376   -3.3690    1.1972 C   0  0  0  0  0  0  0  0  0  0  0  0
   -3.6092    1.9643    1.1774 C   0  0  0  0  0  0  0  0  0  0  0  0
   -4.2408    4.2880    2.5116 C   0  0  0  0  0  0  0  0  0  0  0  0
   -5.2290    3.5368    1.9173 C   0  0  0  0  0  0  0  0  0  0  0  0
   -6.0201    1.5829    0.6139 C   0  0  0  0  0  0  0  0  0  0  0  0
    1.1009   -2.3265    3.4319 C   0  0  0  0  0  0  0  0  0  0  0  0
   -1.2311   -0.6684    1.1327 C   0  0  0  0  0  0  0  0  0  0  0  0
   -6.1428    5.2636    2.8475 C   0  0  0  0  0  0  0  0  0  0  0  0
   -3.3506   -0.7340    2.4677 C   0  0  0  0  0  0  0  0  0  0  0  0
   -3.2210    0.7038    0.4599 C   0  0  0  0  0  0  0  0  0  0  0  0
    0.6009   -2.0974    2.0153 C   0  0  2  0  0  0  0  0  0  0  0  0
    2.4526   -2.0940    3.5719 N   0  0  0  0  0  0  0  0  0  0  0  0
   -0.7433   -1.5694    2.0754 N   0  0  0  0  0  0  0  0  0  0  0  0
   -2.5565   -0.2476    1.3471 N   0  0  0  0  0  0  0  0  0  0  0  0
   -6.3422    1.8382   -0.6068 O   0  5  0  0  0  0  0  0  0  0  0  0
   -6.6038    0.6666    1.3056 O   0  0  0  0  0  0  0  0  0  0  0  0
    0.3744   -2.6736    4.3605 O   0  0  0  0  0  0  0  0  0  0  0  0
   -0.5412   -0.2687    0.1899 O   0  0  0  0  0  0  0  0  0  0  0  0
   -4.7336    5.3996    3.1228 O   0  0  0  0  0  0  0  0  0  0  0  0
   -6.4641    4.0839    2.0824 O   0  0  0  0  0  0  0  0  0  0  0  0
    0.7297   -6.6277   -0.8991 H   0  0  0  0  0  0  0  0  0  0  0  0
    2.7010   -5.1218   -0.8599 H   0  0  0  0  0  0  0  0  0  0  0  0
   -1.3009   -6.0472    0.4036 H   0  0  0  0  0  0  0  0  0  0  0  0
    2.6474   -3.0418    0.4763 H   0  0  0  0  0  0  0  0  0  0  0  0
   -1.3644   -3.9697    1.7427 H   0  0  0  0  0  0  0  0  0  0  0  0
   -1.5621    2.4109    1.7295 H   0  0  0  0  0  0  0  0  0  0  0  0
   -2.1390    4.5065    2.9321 H   0  0  0  0  0  0  0  0  0  0  0  0
   -6.6839    5.2222    3.7998 H   0  0  0  0  0  0  0  0  0  0  0  0
   -6.4782    6.1456    2.2899 H   0  0  0  0  0  0  0  0  0  0  0  0
   -3.2151   -0.0826    3.3349 H   0  0  0  0  0  0  0  0  0  0  0  0
   -3.0424   -1.7478    2.7374 H   0  0  0  0  0  0  0  0  0  0  0  0
   -4.4108   -0.7493    2.2011 H   0  0  0  0  0  0  0  0  0  0  0  0
   -4.1043    0.2118    0.0385 H   0  0  0  0  0  0  0  0  0  0  0  0
   -2.5406    0.9182   -0.3709 H   0  0  0  0  0  0  0  0  0  0  0  0
    1.2287   -1.3308    1.5448 H   0  0  0  0  0  0  0  0  0  0  0  0
    3.0379   -1.7970    2.7977 H   0  0  0  0  0  0  0  0  0  0  0  0
    2.9102   -2.2084    4.4701 H   0  0  0  0  0  0  0  0  0  0  0  0
   -1.3516   -1.8651    2.8295 H   0  0  0  0  0  0  0  0  0  0  0  0
  1  2  2  0  0  0  0
  1  3  1  0  0  0  0
  2  4  1  0  0  0  0
  3  5  2  0  0  0  0
  4  9  2  0  0  0  0
  5  9  1  0  0  0  0
  6  7  2  0  0  0  0
  6 10  1  0  0  0  0
  7 11  1  0  0  0  0
  8 10  2  0  0  0  0
  8 12  1  0  0  0  0
  8 13  1  0  0  0  0
  9 19  1  0  0  0  0
 10 18  1  0  0  0  0
 11 12  2  0  0  0  0
 11 27  1  0  0  0  0
 12 28  1  0  0  0  0
 13 23  1  0  0  0  0
 13 24  2  0  0  0  0
 14 19  1  0  0  0  0
 14 20  1  0  0  0  0
 14 25  2  0  0  0  0
 15 21  1  0  0  0  0
 15 22  1  0  0  0  0
 15 26  2  0  0  0  0
 16 27  1  0  0  0  0
 16 28  1  0  0  0  0
 17 22  1  0  0  0  0
 18 22  1  0  0  0  0
 19 21  1  0  0  0  0
  1 29  1  0  0  0  0
  2 30  1  0  0  0  0
  3 31  1  0  0  0  0
  4 32  1  0  0  0  0
  5 33  1  0  0  0  0
  6 34  1  0  0  0  0
  7 35  1  0  0  0  0
 16 36  1  0  0  0  0
 16 37  1  0  0  0  0
 17 38  1  0  0  0  0
 17 39  1  0  0  0  0
 17 40  1  0  0  0  0
 18 41  1  0  0  0  0
 18 42  1  0  0  0  0
 19 43  1  0  0  0  0
 20 44  1  0  0  0  0
 20 45  1  0  0  0  0
 21 46  1  0  0  0  0
M  CHG  1  23  -1
M  END
$$$$
