AVX38787_3
  -OEChem-04011315013D

 73 76  0     1  0  0  0  0  0999 V2000
    2.8337   -8.4091   -5.1300 C   0  0  0  0  0  0  0  0  0  0  0  0
    3.1003   -9.1541   -3.9814 C   0  0  0  0  0  0  0  0  0  0  0  0
    1.8558   -7.4147   -5.1050 C   0  0  0  0  0  0  0  0  0  0  0  0
    2.3889   -8.9049   -2.8077 C   0  0  0  0  0  0  0  0  0  0  0  0
    3.7873   -4.7230   -0.9091 C   0  0  0  0  0  0  0  0  0  0  0  0
    4.4805   -3.5268   -0.7231 C   0  0  0  0  0  0  0  0  0  0  0  0
    1.1444   -7.1655   -3.9313 C   0  0  0  0  0  0  0  0  0  0  0  0
    3.1622   -4.7317    1.4265 C   0  0  0  0  0  0  0  0  0  0  0  0
    1.4110   -7.9106   -2.7827 C   0  0  0  0  0  0  0  0  0  0  0  0
    3.1247   -5.3218    0.1629 C   0  0  0  0  0  0  0  0  0  0  0  0
    4.5065   -2.9289    0.5372 C   0  0  0  0  0  0  0  0  0  0  0  0
    3.8661   -3.5422    1.6162 C   0  0  0  0  0  0  0  0  0  0  0  0
    0.1282   -6.1219   -3.9330 C   0  0  0  0  0  0  0  0  0  0  0  0
    2.4672   -5.3737    2.5610 C   0  0  0  0  0  0  0  0  0  0  0  0
    4.6075    1.7442    0.4993 C   0  0  0  0  0  0  0  0  0  0  0  0
   -0.0429   -0.6618   -1.1150 C   0  0  0  0  0  0  0  0  0  0  0  0
    0.9531   -1.8173   -1.1005 C   0  0  0  0  0  0  0  0  0  0  0  0
   -1.4302   -1.1225   -1.5511 C   0  0  0  0  0  0  0  0  0  0  0  0
    0.9996   -2.5378   -2.4460 C   0  0  0  0  0  0  0  0  0  0  0  0
   -1.3877   -1.8420   -2.8973 C   0  0  0  0  0  0  0  0  0  0  0  0
    4.8933   -2.0200    3.0374 C   0  0  0  0  0  0  0  0  0  0  0  0
   -0.3932   -3.0107   -2.8840 C   0  0  0  0  0  0  0  0  0  0  0  0
    4.8569   -1.0503    1.8636 C   0  0  1  0  0  0  0  0  0  0  0  0
    0.0088   -5.8666    0.0913 C   0  0  0  0  0  0  0  0  0  0  0  0
    0.6606   -7.6641   -1.5071 C   0  0  0  0  0  0  0  0  0  0  0  0
    2.3851   -6.5988   -0.0723 C   0  0  0  0  0  0  0  0  0  0  0  0
    5.9022    0.9960    0.8384 C   0  0  0  0  0  0  0  0  0  0  0  0
   -0.3290   -3.6801   -4.2555 C   0  0  0  0  0  0  0  0  0  0  0  0
    5.8665    0.0740    2.0421 C   0  0  0  0  0  0  0  0  0  0  0  0
    0.5536   -4.8244   -4.2364 N   0  0  0  0  0  0  0  0  0  0  0  0
    1.0995   -6.4089   -0.7968 N   0  3  2  0  0  0  0  0  0  0  0  0
    1.2422   -5.0583    2.7889 O   0  5  0  0  0  0  0  0  0  0  0  0
    4.4162    2.0142   -0.7180 O   0  5  0  0  0  0  0  0  0  0  0  0
   -1.0520   -6.3928   -3.6540 O   0  0  0  0  0  0  0  0  0  0  0  0
    3.1140   -6.2229    3.2768 O   0  0  0  0  0  0  0  0  0  0  0  0
    3.8738    1.9900    1.4999 O   0  0  0  0  0  0  0  0  0  0  0  0
    3.8829   -3.0219    2.8833 O   0  0  0  0  0  0  0  0  0  0  0  0
    5.1855   -1.7446    0.6526 O   0  0  0  0  0  0  0  0  0  0  0  0
    3.3875   -8.6026   -6.0443 H   0  0  0  0  0  0  0  0  0  0  0  0
    3.8617   -9.9285   -4.0016 H   0  0  0  0  0  0  0  0  0  0  0  0
    1.6567   -6.8417   -6.0070 H   0  0  0  0  0  0  0  0  0  0  0  0
    2.6047   -9.4909   -1.9182 H   0  0  0  0  0  0  0  0  0  0  0  0
    3.7657   -5.1789   -1.8956 H   0  0  0  0  0  0  0  0  0  0  0  0
    4.9852   -3.0620   -1.5656 H   0  0  0  0  0  0  0  0  0  0  0  0
   -0.1004   -0.2122   -0.1173 H   0  0  0  0  0  0  0  0  0  0  0  0
    0.3138    0.1183   -1.7987 H   0  0  0  0  0  0  0  0  0  0  0  0
    1.9509   -1.4397   -0.8495 H   0  0  0  0  0  0  0  0  0  0  0  0
    0.6744   -2.5301   -0.3146 H   0  0  0  0  0  0  0  0  0  0  0  0
   -1.8476   -1.7947   -0.7913 H   0  0  0  0  0  0  0  0  0  0  0  0
   -2.1013   -0.2584   -1.6157 H   0  0  0  0  0  0  0  0  0  0  0  0
    1.4193   -1.8617   -3.2021 H   0  0  0  0  0  0  0  0  0  0  0  0
    1.6804   -3.3945   -2.3743 H   0  0  0  0  0  0  0  0  0  0  0  0
   -2.3918   -2.2076   -3.1439 H   0  0  0  0  0  0  0  0  0  0  0  0
   -1.1103   -1.1245   -3.6803 H   0  0  0  0  0  0  0  0  0  0  0  0
    5.8663   -2.5202    3.1251 H   0  0  0  0  0  0  0  0  0  0  0  0
    4.6943   -1.4964    3.9785 H   0  0  0  0  0  0  0  0  0  0  0  0
   -0.7476   -3.7649   -2.1729 H   0  0  0  0  0  0  0  0  0  0  0  0
    3.8527   -0.6205    1.7467 H   0  0  0  0  0  0  0  0  0  0  0  0
   -0.1763   -6.5997    0.8785 H   0  0  0  0  0  0  0  0  0  0  0  0
    0.3581   -4.9208    0.5099 H   0  0  0  0  0  0  0  0  0  0  0  0
   -0.8806   -5.7188   -0.5242 H   0  0  0  0  0  0  0  0  0  0  0  0
   -0.4138   -7.5608   -1.6933 H   0  0  0  0  0  0  0  0  0  0  0  0
    0.7990   -8.4899   -0.8009 H   0  0  0  0  0  0  0  0  0  0  0  0
    2.9776   -7.3020   -0.6714 H   0  0  0  0  0  0  0  0  0  0  0  0
    2.1376   -7.0994    0.8726 H   0  0  0  0  0  0  0  0  0  0  0  0
    6.6584    1.7674    1.0314 H   0  0  0  0  0  0  0  0  0  0  0  0
    6.2282    0.4424   -0.0511 H   0  0  0  0  0  0  0  0  0  0  0  0
    0.0485   -2.9799   -5.0067 H   0  0  0  0  0  0  0  0  0  0  0  0
   -1.3192   -4.0281   -4.5641 H   0  0  0  0  0  0  0  0  0  0  0  0
    5.6207    0.6109    2.9568 H   0  0  0  0  0  0  0  0  0  0  0  0
    6.8429   -0.3901    2.1794 H   0  0  0  0  0  0  0  0  0  0  0  0
    1.5404   -4.6488   -4.3947 H   0  0  0  0  0  0  0  0  0  0  0  0
    1.2545   -5.6983   -1.5305 H   0  0  0  0  0  0  0  0  0  0  0  0
  1  2  1  0  0  0  0
  1  3  2  0  0  0  0
  2  4  2  0  0  0  0
  3  7  1  0  0  0  0
  4  9  1  0  0  0  0
  5  6  2  0  0  0  0
  5 10  1  0  0  0  0
  6 11  1  0  0  0  0
  7  9  2  0  0  0  0
  7 13  1  0  0  0  0
  8 10  2  0  0  0  0
  8 12  1  0  0  0  0
  8 14  1  0  0  0  0
  9 25  1  0  0  0  0
 10 26  1  0  0  0  0
 11 12  2  0  0  0  0
 11 38  1  0  0  0  0
 12 37  1  0  0  0  0
 13 30  1  0  0  0  0
 13 34  2  0  0  0  0
 14 32  1  0  0  0  0
 14 35  2  0  0  0  0
 15 27  1  0  0  0  0
 15 33  1  0  0  0  0
 15 36  2  0  0  0  0
 16 17  1  0  0  0  0
 16 18  1  0  0  0  0
 17 19  1  0  0  0  0
 18 20  1  0  0  0  0
 19 22  1  0  0  0  0
 20 22  1  0  0  0  0
 21 23  1  0  0  0  0
 21 37  1  0  0  0  0
 22 28  1  0  0  0  0
 23 29  1  0  0  0  0
 23 38  1  0  0  0  0
 24 31  1  0  0  0  0
 25 31  1  0  0  0  0
 26 31  1  0  0  0  0
 27 29  1  0  0  0  0
 28 30  1  0  0  0  0
  1 39  1  0  0  0  0
  2 40  1  0  0  0  0
  3 41  1  0  0  0  0
  4 42  1  0  0  0  0
  5 43  1  0  0  0  0
  6 44  1  0  0  0  0
 16 45  1  0  0  0  0
 16 46  1  0  0  0  0
 17 47  1  0  0  0  0
 17 48  1  0  0  0  0
 18 49  1  0  0  0  0
 18 50  1  0  0  0  0
 19 51  1  0  0  0  0
 19 52  1  0  0  0  0
 20 53  1  0  0  0  0
 20 54  1  0  0  0  0
 21 55  1  0  0  0  0
 21 56  1  0  0  0  0
 22 57  1  0  0  0  0
 23 58  1  0  0  0  0
 24 59  1  0  0  0  0
 24 60  1  0  0  0  0
 24 61  1  0  0  0  0
 25 62  1  0  0  0  0
 25 63  1  0  0  0  0
 26 64  1  0  0  0  0
 26 65  1  0  0  0  0
 27 66  1  0  0  0  0
 27 67  1  0  0  0  0
 28 68  1  0  0  0  0
 28 69  1  0  0  0  0
 29 70  1  0  0  0  0
 29 71  1  0  0  0  0
 30 72  1  0  0  0  0
 31 73  1  0  0  0  0
M  CHG  3  31   1  32  -1  33  -1
M  END
$$$$
