AVX38747_5
  -OEChem-04011314573D

 70 73  0     1  0  0  0  0  0999 V2000
    1.8121    1.8090   -1.1916 C   0  0  0  0  0  0  0  0  0  0  0  0
    1.2445    1.0062   -2.1923 C   0  0  0  0  0  0  0  0  0  0  0  0
    1.4139    1.6723    0.1391 C   0  0  0  0  0  0  0  0  0  0  0  0
    0.2716    0.0548   -1.8762 C   0  0  0  0  0  0  0  0  0  0  0  0
   -3.5149   -2.9216    0.0712 C   0  0  0  0  0  0  0  0  0  0  0  0
   -4.4917   -3.7126    0.6766 C   0  0  0  0  0  0  0  0  0  0  0  0
   -1.7992   -4.4446    0.8346 C   0  0  0  0  0  0  0  0  0  0  0  0
    0.4574    0.7177    0.4451 C   0  0  0  0  0  0  0  0  0  0  0  0
   -0.1106   -0.0875   -0.5510 C   0  0  0  0  0  0  0  0  0  0  0  0
   -2.1712   -3.2900    0.1456 C   0  0  0  0  0  0  0  0  0  0  0  0
   -4.1216   -4.8749    1.3537 C   0  0  0  0  0  0  0  0  0  0  0  0
   -2.7742   -5.2291    1.4513 C   0  0  0  0  0  0  0  0  0  0  0  0
   -0.3746   -4.8262    0.9188 C   0  0  0  0  0  0  0  0  0  0  0  0
   -1.7701   -1.7970    3.6498 C   0  0  0  0  0  0  0  0  0  0  0  0
   -7.2271   -8.3611    1.1266 C   0  0  0  0  0  0  0  0  0  0  0  0
   -0.1388    0.4223    1.7852 C   0  0  0  0  0  0  0  0  0  0  0  0
   -3.3586   -6.8638    2.9935 C   0  0  0  0  0  0  0  0  0  0  0  0
   -1.1518   -1.0021    0.0354 C   0  0  2  0  0  0  0  0  0  0  0  0
   -0.7658   -0.9617    1.5347 C   0  0  2  0  0  0  0  0  0  0  0  0
   -4.6898   -6.9415    2.2578 C   0  0  1  0  0  0  0  0  0  0  0  0
   -1.1435   -2.4184   -0.5254 C   0  0  0  0  0  0  0  0  0  0  0  0
   -3.1245   -1.9619    4.3199 C   0  0  0  0  0  0  0  0  0  0  0  0
   -7.1185   -7.5742    2.4380 C   0  0  0  0  0  0  0  0  0  0  0  0
   -5.7674   -7.5727    3.1272 C   0  0  0  0  0  0  0  0  0  0  0  0
   -3.2014   -3.1584    5.2671 C   0  0  0  0  0  0  0  0  0  0  0  0
   -4.5771   -3.2907    5.9299 C   0  0  0  0  0  0  0  0  0  0  0  0
   -4.6140   -4.4830    6.8910 C   0  0  0  0  0  0  0  0  0  0  0  0
   -5.9571   -4.6579    7.5889 C   0  0  0  0  0  0  0  0  0  0  0  0
   -1.8889   -1.2126    2.3971 N   0  0  0  0  0  0  0  0  0  0  0  0
   -7.0364   -4.8836    6.5990 N   0  3  0  0  0  0  0  0  0  0  0  0
    0.1132   -5.5858    0.0039 O   0  5  0  0  0  0  0  0  0  0  0  0
   -8.0603   -7.9335    0.2813 O   0  5  0  0  0  0  0  0  0  0  0  0
    0.3226   -4.3842    1.9040 O   0  0  0  0  0  0  0  0  0  0  0  0
   -0.7165   -2.1628    4.1635 O   0  0  0  0  0  0  0  0  0  0  0  0
   -6.4438   -9.3512    1.0499 O   0  0  0  0  0  0  0  0  0  0  0  0
   -2.3453   -6.3396    2.1293 O   0  0  0  0  0  0  0  0  0  0  0  0
   -5.1274   -5.6211    1.9092 O   0  0  0  0  0  0  0  0  0  0  0  0
    2.5634    2.5477   -1.4572 H   0  0  0  0  0  0  0  0  0  0  0  0
    1.5604    1.1315   -3.2244 H   0  0  0  0  0  0  0  0  0  0  0  0
    1.8458    2.3010    0.9103 H   0  0  0  0  0  0  0  0  0  0  0  0
   -0.1719   -0.5499   -2.6597 H   0  0  0  0  0  0  0  0  0  0  0  0
   -3.8120   -2.0215   -0.4606 H   0  0  0  0  0  0  0  0  0  0  0  0
   -5.5367   -3.4238    0.6051 H   0  0  0  0  0  0  0  0  0  0  0  0
    0.6167    0.3767    2.5755 H   0  0  0  0  0  0  0  0  0  0  0  0
   -0.8902    1.1782    2.0386 H   0  0  0  0  0  0  0  0  0  0  0  0
   -3.4195   -6.2243    3.8834 H   0  0  0  0  0  0  0  0  0  0  0  0
   -3.0337   -7.8599    3.3124 H   0  0  0  0  0  0  0  0  0  0  0  0
   -2.1407   -0.5507   -0.1204 H   0  0  0  0  0  0  0  0  0  0  0  0
   -0.0171   -1.7371    1.7532 H   0  0  0  0  0  0  0  0  0  0  0  0
   -4.5869   -7.5210    1.3302 H   0  0  0  0  0  0  0  0  0  0  0  0
   -0.1470   -2.8572   -0.4016 H   0  0  0  0  0  0  0  0  0  0  0  0
   -1.3308   -2.3878   -1.6049 H   0  0  0  0  0  0  0  0  0  0  0  0
   -3.3807   -1.0389    4.8530 H   0  0  0  0  0  0  0  0  0  0  0  0
   -3.8621   -2.0962    3.5191 H   0  0  0  0  0  0  0  0  0  0  0  0
   -7.8433   -8.0272    3.1262 H   0  0  0  0  0  0  0  0  0  0  0  0
   -7.4498   -6.5443    2.2552 H   0  0  0  0  0  0  0  0  0  0  0  0
   -5.4461   -8.5787    3.3917 H   0  0  0  0  0  0  0  0  0  0  0  0
   -5.8229   -6.9877    4.0449 H   0  0  0  0  0  0  0  0  0  0  0  0
   -2.9973   -4.0694    4.6910 H   0  0  0  0  0  0  0  0  0  0  0  0
   -2.4225   -3.0861    6.0356 H   0  0  0  0  0  0  0  0  0  0  0  0
   -5.3438   -3.4205    5.1565 H   0  0  0  0  0  0  0  0  0  0  0  0
   -4.8157   -2.3685    6.4698 H   0  0  0  0  0  0  0  0  0  0  0  0
   -4.4003   -5.4007    6.3293 H   0  0  0  0  0  0  0  0  0  0  0  0
   -3.8177   -4.3782    7.6384 H   0  0  0  0  0  0  0  0  0  0  0  0
   -5.9605   -5.5143    8.2696 H   0  0  0  0  0  0  0  0  0  0  0  0
   -6.2277   -3.7542    8.1429 H   0  0  0  0  0  0  0  0  0  0  0  0
   -2.8149   -0.9491    2.0731 H   0  0  0  0  0  0  0  0  0  0  0  0
   -6.6489   -5.1089    5.6759 H   0  0  0  0  0  0  0  0  0  0  0  0
   -7.6240   -4.0481    6.4982 H   0  0  0  0  0  0  0  0  0  0  0  0
   -7.6418   -5.6615    6.8846 H   0  0  0  0  0  0  0  0  0  0  0  0
  1  2  1  0  0  0  0
  1  3  2  0  0  0  0
  2  4  2  0  0  0  0
  3  8  1  0  0  0  0
  4  9  1  0  0  0  0
  5  6  2  0  0  0  0
  5 10  1  0  0  0  0
  6 11  1  0  0  0  0
  7 10  2  0  0  0  0
  7 12  1  0  0  0  0
  7 13  1  0  0  0  0
  8  9  2  0  0  0  0
  8 16  1  0  0  0  0
  9 18  1  0  0  0  0
 10 21  1  0  0  0  0
 11 12  2  0  0  0  0
 11 37  1  0  0  0  0
 12 36  1  0  0  0  0
 13 31  1  0  0  0  0
 13 33  2  0  0  0  0
 14 22  1  0  0  0  0
 14 29  1  0  0  0  0
 14 34  2  0  0  0  0
 15 23  1  0  0  0  0
 15 32  1  0  0  0  0
 15 35  2  0  0  0  0
 16 19  1  0  0  0  0
 17 20  1  0  0  0  0
 17 36  1  0  0  0  0
 18 19  1  0  0  0  0
 18 21  1  0  0  0  0
 19 29  1  0  0  0  0
 20 24  1  0  0  0  0
 20 37  1  0  0  0  0
 22 25  1  0  0  0  0
 23 24  1  0  0  0  0
 25 26  1  0  0  0  0
 26 27  1  0  0  0  0
 27 28  1  0  0  0  0
 28 30  1  0  0  0  0
  1 38  1  0  0  0  0
  2 39  1  0  0  0  0
  3 40  1  0  0  0  0
  4 41  1  0  0  0  0
  5 42  1  0  0  0  0
  6 43  1  0  0  0  0
 16 44  1  0  0  0  0
 16 45  1  0  0  0  0
 17 46  1  0  0  0  0
 17 47  1  0  0  0  0
 18 48  1  0  0  0  0
 19 49  1  0  0  0  0
 20 50  1  0  0  0  0
 21 51  1  0  0  0  0
 21 52  1  0  0  0  0
 22 53  1  0  0  0  0
 22 54  1  0  0  0  0
 23 55  1  0  0  0  0
 23 56  1  0  0  0  0
 24 57  1  0  0  0  0
 24 58  1  0  0  0  0
 25 59  1  0  0  0  0
 25 60  1  0  0  0  0
 26 61  1  0  0  0  0
 26 62  1  0  0  0  0
 27 63  1  0  0  0  0
 27 64  1  0  0  0  0
 28 65  1  0  0  0  0
 28 66  1  0  0  0  0
 29 67  1  0  0  0  0
 30 68  1  0  0  0  0
 30 69  1  0  0  0  0
 30 70  1  0  0  0  0
M  CHG  3  30   1  31  -1  32  -1
M  END
$$$$
