AVX38711_2
  -OEChem-04011314563D

 37 39  0     1  0  0  0  0  0999 V2000
    1.5190   -6.6781    6.4407 C   0  0  0  0  0  0  0  0  0  0  0  0
    1.8961   -7.3740    5.2922 C   0  0  0  0  0  0  0  0  0  0  0  0
    1.0903   -5.3542    6.3448 C   0  0  0  0  0  0  0  0  0  0  0  0
    1.9547   -0.9071    0.1311 C   0  0  0  0  0  0  0  0  0  0  0  0
    0.5841   -0.8134    0.4218 C   0  0  0  0  0  0  0  0  0  0  0  0
    1.8447   -6.7460    4.0478 C   0  0  0  0  0  0  0  0  0  0  0  0
    1.0389   -4.7262    5.1003 C   0  0  0  0  0  0  0  0  0  0  0  0
    2.7283   -1.9397    0.6686 C   0  0  0  0  0  0  0  0  0  0  0  0
   -0.0308   -1.7524    1.2509 C   0  0  0  0  0  0  0  0  0  0  0  0
    1.4160   -5.4221    3.9518 C   0  0  0  0  0  0  0  0  0  0  0  0
    2.1069   -2.8726    1.4809 C   0  0  0  0  0  0  0  0  0  0  0  0
    0.7506   -2.7721    1.7596 C   0  0  0  0  0  0  0  0  0  0  0  0
   -1.4641   -1.6517    1.5608 C   0  0  0  0  0  0  0  0  0  0  0  0
    3.9573   -6.1118   -0.8374 C   0  0  0  0  0  0  0  0  0  0  0  0
    2.6794   -4.0216    2.2335 C   0  0  1  0  0  0  0  0  0  0  0  0
    1.3602   -4.7410    2.6037 C   0  0  2  0  0  0  0  0  0  0  0  0
    3.1043   -5.1972    0.0496 C   0  0  0  0  0  0  0  0  0  0  0  0
    3.6318   -4.9051    1.4414 C   0  0  0  0  0  0  0  0  0  0  0  0
   -2.1422   -0.6780    1.0574 O   0  5  0  0  0  0  0  0  0  0  0  0
    3.5124   -6.3481   -1.9939 O   0  5  0  0  0  0  0  0  0  0  0  0
   -1.9986   -2.5400    2.3265 O   0  0  0  0  0  0  0  0  0  0  0  0
    5.0265   -6.5117   -0.2927 O   0  0  0  0  0  0  0  0  0  0  0  0
    0.2852   -3.7597    2.5909 O   0  0  0  0  0  0  0  0  0  0  0  0
    1.5579   -7.1676    7.4094 H   0  0  0  0  0  0  0  0  0  0  0  0
    2.2289   -8.4052    5.3666 H   0  0  0  0  0  0  0  0  0  0  0  0
    0.7956   -4.8124    7.2386 H   0  0  0  0  0  0  0  0  0  0  0  0
    2.4193   -0.1635   -0.5108 H   0  0  0  0  0  0  0  0  0  0  0  0
    0.0084    0.0045   -0.0049 H   0  0  0  0  0  0  0  0  0  0  0  0
    2.1406   -7.2960    3.1583 H   0  0  0  0  0  0  0  0  0  0  0  0
    0.7037   -3.6944    5.0352 H   0  0  0  0  0  0  0  0  0  0  0  0
    3.7907   -1.9947    0.4570 H   0  0  0  0  0  0  0  0  0  0  0  0
    3.1860   -3.6341    3.1274 H   0  0  0  0  0  0  0  0  0  0  0  0
    1.0972   -5.5127    1.8488 H   0  0  0  0  0  0  0  0  0  0  0  0
    2.1337   -5.6973    0.1588 H   0  0  0  0  0  0  0  0  0  0  0  0
    2.9230   -4.2589   -0.4895 H   0  0  0  0  0  0  0  0  0  0  0  0
    4.6048   -4.4174    1.4120 H   0  0  0  0  0  0  0  0  0  0  0  0
    3.7420   -5.8367    1.9962 H   0  0  0  0  0  0  0  0  0  0  0  0
  1  2  2  0  0  0  0
  1  3  1  0  0  0  0
  2  6  1  0  0  0  0
  3  7  2  0  0  0  0
  4  5  1  0  0  0  0
  4  8  2  0  0  0  0
  5  9  2  0  0  0  0
  6 10  2  0  0  0  0
  7 10  1  0  0  0  0
  8 11  1  0  0  0  0
  9 12  1  0  0  0  0
  9 13  1  0  0  0  0
 10 16  1  0  0  0  0
 11 12  2  0  0  0  0
 11 15  1  0  0  0  0
 12 23  1  0  0  0  0
 13 19  1  0  0  0  0
 13 21  2  0  0  0  0
 14 17  1  0  0  0  0
 14 20  1  0  0  0  0
 14 22  2  0  0  0  0
 15 16  1  0  0  0  0
 15 18  1  0  0  0  0
 16 23  1  0  0  0  0
 17 18  1  0  0  0  0
  1 24  1  0  0  0  0
  2 25  1  0  0  0  0
  3 26  1  0  0  0  0
  4 27  1  0  0  0  0
  5 28  1  0  0  0  0
  6 29  1  0  0  0  0
  7 30  1  0  0  0  0
  8 31  1  0  0  0  0
 15 32  1  0  0  0  0
 16 33  1  0  0  0  0
 17 34  1  0  0  0  0
 17 35  1  0  0  0  0
 18 36  1  0  0  0  0
 18 37  1  0  0  0  0
M  CHG  2  19  -1  20  -1
M  END
$$$$
