AVX38783_2
  -OEChem-04011315003D

 68 71  0     1  0  0  0  0  0999 V2000
    0.2595   -3.7172   -7.9077 C   0  0  0  0  0  0  0  0  0  0  0  0
    1.3322   -3.2332   -7.1589 C   0  0  0  0  0  0  0  0  0  0  0  0
   -4.3711   -8.6746   -2.9019 C   0  0  0  0  0  0  0  0  0  0  0  0
   -0.9978   -3.8519   -7.3189 C   0  0  0  0  0  0  0  0  0  0  0  0
    1.1475   -2.8840   -5.8211 C   0  0  0  0  0  0  0  0  0  0  0  0
   -2.0092   -2.8069   -0.6774 C   0  0  0  0  0  0  0  0  0  0  0  0
   -3.0247   -3.5450   -0.0691 C   0  0  0  0  0  0  0  0  0  0  0  0
   -4.8471   -7.6885   -3.7986 C   0  0  0  0  0  0  0  0  0  0  0  0
   -3.3477   -8.0866   -2.1956 C   0  0  0  0  0  0  0  0  0  0  0  0
   -1.1824   -3.5027   -5.9811 C   0  0  0  0  0  0  0  0  0  0  0  0
   -3.6620   -1.4625   -1.8206 C   0  0  0  0  0  0  0  0  0  0  0  0
   -0.1098   -3.0187   -5.2322 C   0  0  0  0  0  0  0  0  0  0  0  0
   -2.3274   -1.7637   -1.5477 C   0  0  0  0  0  0  0  0  0  0  0  0
   -4.3596   -3.2350   -0.3307 C   0  0  0  0  0  0  0  0  0  0  0  0
   -4.6780   -2.2086   -1.2227 C   0  0  0  0  0  0  0  0  0  0  0  0
   -4.0808   -6.5681   -3.5762 C   0  0  0  0  0  0  0  0  0  0  0  0
    1.4316    1.2788   -3.3894 C   0  0  0  0  0  0  0  0  0  0  0  0
    1.0509    0.0831   -3.8524 C   0  0  0  0  0  0  0  0  0  0  0  0
   -2.5055   -3.6539   -5.3909 C   0  0  0  0  0  0  0  0  0  0  0  0
   -3.9946   -0.3633   -2.7497 C   0  0  0  0  0  0  0  0  0  0  0  0
   -7.2806   -3.9214    3.2535 C   0  0  0  0  0  0  0  0  0  0  0  0
   -6.8940   -2.9000   -1.1624 C   0  0  0  0  0  0  0  0  0  0  0  0
   -6.6061   -3.3666    0.2584 C   0  0  1  0  0  0  0  0  0  0  0  0
   -0.2799   -2.6362   -3.7915 C   0  0  0  0  0  0  0  0  0  0  0  0
   -1.2157   -0.9880   -2.1764 C   0  0  0  0  0  0  0  0  0  0  0  0
   -4.0685   -5.1953   -4.1841 C   0  0  0  0  0  0  0  0  0  0  0  0
   -0.3192   -0.2135   -4.3666 C   0  0  0  0  0  0  0  0  0  0  0  0
   -7.2999   -4.9330    2.1014 C   0  0  0  0  0  0  0  0  0  0  0  0
   -7.6275   -4.3950    0.7216 C   0  0  0  0  0  0  0  0  0  0  0  0
   -2.7943   -4.8840   -4.7909 N   0  0  0  0  0  0  0  0  0  0  0  0
   -1.0008   -1.3248   -3.6097 N   0  3  1  0  0  0  0  0  0  0  0  0
   -4.1459    0.8203   -2.2721 O   0  5  0  0  0  0  0  0  0  0  0  0
   -6.4931   -4.1700    4.2071 O   0  5  0  0  0  0  0  0  0  0  0  0
   -3.3299   -2.7260   -5.4488 O   0  0  0  0  0  0  0  0  0  0  0  0
   -4.1203   -0.6326   -4.0002 O   0  0  0  0  0  0  0  0  0  0  0  0
   -8.0617   -2.9394    3.0941 O   0  0  0  0  0  0  0  0  0  0  0  0
   -3.1645   -6.8025   -2.6005 O   0  0  0  0  0  0  0  0  0  0  0  0
   -5.9678   -1.8781   -1.5450 O   0  0  0  0  0  0  0  0  0  0  0  0
   -5.3116   -3.9813    0.3126 O   0  0  0  0  0  0  0  0  0  0  0  0
    0.4027   -3.9892   -8.9497 H   0  0  0  0  0  0  0  0  0  0  0  0
    2.3110   -3.1288   -7.6179 H   0  0  0  0  0  0  0  0  0  0  0  0
   -4.7288   -9.6874   -2.7852 H   0  0  0  0  0  0  0  0  0  0  0  0
   -1.8254   -4.2313   -7.9128 H   0  0  0  0  0  0  0  0  0  0  0  0
    1.9898   -2.5074   -5.2467 H   0  0  0  0  0  0  0  0  0  0  0  0
   -0.9717   -3.0499   -0.4630 H   0  0  0  0  0  0  0  0  0  0  0  0
   -2.7681   -4.3491    0.6151 H   0  0  0  0  0  0  0  0  0  0  0  0
   -5.6489   -7.7857   -4.5167 H   0  0  0  0  0  0  0  0  0  0  0  0
   -2.6864   -8.4291   -1.4133 H   0  0  0  0  0  0  0  0  0  0  0  0
    2.4443    1.4331   -3.0331 H   0  0  0  0  0  0  0  0  0  0  0  0
    0.7473    2.1193   -3.3581 H   0  0  0  0  0  0  0  0  0  0  0  0
    1.7775   -0.7250   -3.8671 H   0  0  0  0  0  0  0  0  0  0  0  0
   -6.8208   -3.7220   -1.8859 H   0  0  0  0  0  0  0  0  0  0  0  0
   -7.9001   -2.4733   -1.2335 H   0  0  0  0  0  0  0  0  0  0  0  0
   -6.6074   -2.5160    0.9536 H   0  0  0  0  0  0  0  0  0  0  0  0
   -0.8577   -3.3908   -3.2471 H   0  0  0  0  0  0  0  0  0  0  0  0
    0.6897   -2.5341   -3.2922 H   0  0  0  0  0  0  0  0  0  0  0  0
   -1.4067    0.0920   -2.1370 H   0  0  0  0  0  0  0  0  0  0  0  0
   -0.2604   -1.1716   -1.6681 H   0  0  0  0  0  0  0  0  0  0  0  0
   -4.8402   -5.1083   -4.9567 H   0  0  0  0  0  0  0  0  0  0  0  0
   -4.2760   -4.4295   -3.4294 H   0  0  0  0  0  0  0  0  0  0  0  0
   -0.2687   -0.5378   -5.4106 H   0  0  0  0  0  0  0  0  0  0  0  0
   -0.9853    0.6528   -4.3026 H   0  0  0  0  0  0  0  0  0  0  0  0
   -8.0655   -5.6752    2.3603 H   0  0  0  0  0  0  0  0  0  0  0  0
   -6.3369   -5.4584    2.0824 H   0  0  0  0  0  0  0  0  0  0  0  0
   -8.6135   -3.9345    0.6896 H   0  0  0  0  0  0  0  0  0  0  0  0
   -7.6151   -5.2086   -0.0032 H   0  0  0  0  0  0  0  0  0  0  0  0
   -2.1062   -5.6290   -4.8276 H   0  0  0  0  0  0  0  0  0  0  0  0
   -1.9300   -1.4433   -4.0454 H   0  0  0  0  0  0  0  0  0  0  0  0
  1  2  1  0  0  0  0
  1  4  2  0  0  0  0
  2  5  2  0  0  0  0
  3  8  1  0  0  0  0
  3  9  2  0  0  0  0
  4 10  1  0  0  0  0
  5 12  1  0  0  0  0
  6  7  2  0  0  0  0
  6 13  1  0  0  0  0
  7 14  1  0  0  0  0
  8 16  2  0  0  0  0
  9 37  1  0  0  0  0
 10 12  2  0  0  0  0
 10 19  1  0  0  0  0
 11 13  2  0  0  0  0
 11 15  1  0  0  0  0
 11 20  1  0  0  0  0
 12 24  1  0  0  0  0
 13 25  1  0  0  0  0
 14 15  2  0  0  0  0
 14 39  1  0  0  0  0
 15 38  1  0  0  0  0
 16 26  1  0  0  0  0
 16 37  1  0  0  0  0
 17 18  2  0  0  0  0
 18 27  1  0  0  0  0
 19 30  1  0  0  0  0
 19 34  2  0  0  0  0
 20 32  1  0  0  0  0
 20 35  2  0  0  0  0
 21 28  1  0  0  0  0
 21 33  1  0  0  0  0
 21 36  2  0  0  0  0
 22 23  1  0  0  0  0
 22 38  1  0  0  0  0
 23 29  1  0  0  0  0
 23 39  1  0  0  0  0
 24 31  1  0  0  0  0
 25 31  1  0  0  0  0
 26 30  1  0  0  0  0
 27 31  1  0  0  0  0
 28 29  1  0  0  0  0
  1 40  1  0  0  0  0
  2 41  1  0  0  0  0
  3 42  1  0  0  0  0
  4 43  1  0  0  0  0
  5 44  1  0  0  0  0
  6 45  1  0  0  0  0
  7 46  1  0  0  0  0
  8 47  1  0  0  0  0
  9 48  1  0  0  0  0
 17 49  1  0  0  0  0
 17 50  1  0  0  0  0
 18 51  1  0  0  0  0
 22 52  1  0  0  0  0
 22 53  1  0  0  0  0
 23 54  1  0  0  0  0
 24 55  1  0  0  0  0
 24 56  1  0  0  0  0
 25 57  1  0  0  0  0
 25 58  1  0  0  0  0
 26 59  1  0  0  0  0
 26 60  1  0  0  0  0
 27 61  1  0  0  0  0
 27 62  1  0  0  0  0
 28 63  1  0  0  0  0
 28 64  1  0  0  0  0
 29 65  1  0  0  0  0
 29 66  1  0  0  0  0
 30 67  1  0  0  0  0
 31 68  1  0  0  0  0
M  CHG  3  31   1  32  -1  33  -1
M  END
$$$$
