AVX38782_0
  -OEChem-04011315003D

 71 74  0     1  0  0  0  0  0999 V2000
   -3.0533   -7.4652   -3.0730 C   0  0  0  0  0  0  0  0  0  0  0  0
   -4.2074   -6.6846   -3.1390 C   0  0  0  0  0  0  0  0  0  0  0  0
   -2.2803   -7.4704   -1.9119 C   0  0  0  0  0  0  0  0  0  0  0  0
   -4.5884   -5.9091   -2.0441 C   0  0  0  0  0  0  0  0  0  0  0  0
   -3.5805   -3.3210    3.3145 C   0  0  0  0  0  0  0  0  0  0  0  0
   -2.4808   -2.9185    4.0727 C   0  0  0  0  0  0  0  0  0  0  0  0
   -2.6613   -6.6949   -0.8169 C   0  0  0  0  0  0  0  0  0  0  0  0
   -3.4270   -5.5416    4.2585 C   0  0  0  0  0  0  0  0  0  0  0  0
   -3.8154   -5.9142   -0.8829 C   0  0  0  0  0  0  0  0  0  0  0  0
   -4.0495   -4.6321    3.4031 C   0  0  0  0  0  0  0  0  0  0  0  0
   -1.8493   -3.8314    4.9179 C   0  0  0  0  0  0  0  0  0  0  0  0
   -2.3358   -5.1360    5.0273 C   0  0  0  0  0  0  0  0  0  0  0  0
   -8.3922   -5.9766    0.9307 C   0  0  0  0  0  0  0  0  0  0  0  0
   -7.1564   -5.9012    0.4246 C   0  0  0  0  0  0  0  0  0  0  0  0
   -1.8356   -6.7182    0.3829 C   0  0  0  0  0  0  0  0  0  0  0  0
   -3.9323   -6.9263    4.3565 C   0  0  0  0  0  0  0  0  0  0  0  0
    3.0471   -2.2941    7.3942 C   0  0  0  0  0  0  0  0  0  0  0  0
    1.9666   -2.8874    2.3168 C   0  0  0  0  0  0  0  0  0  0  0  0
    2.1107   -4.4096    2.5232 C   0  0  0  0  0  0  0  0  0  0  0  0
    0.5699   -3.1767    1.7283 C   0  0  0  0  0  0  0  0  0  0  0  0
   -0.9200   -5.4676    6.8372 C   0  0  0  0  0  0  0  0  0  0  0  0
    1.0948   -4.5840    1.3751 C   0  0  0  0  0  0  0  0  0  0  0  0
    0.0079   -4.4610    6.1699 C   0  0  2  0  0  0  0  0  0  0  0  0
   -4.2482   -5.0702    0.2795 C   0  0  0  0  0  0  0  0  0  0  0  0
   -5.2236   -5.0330    2.5703 C   0  0  0  0  0  0  0  0  0  0  0  0
   -6.0052   -6.7179    0.9117 C   0  0  0  0  0  0  0  0  0  0  0  0
    1.9775   -2.9303    6.4987 C   0  0  0  0  0  0  0  0  0  0  0  0
    0.1106   -5.6858    1.5751 C   0  0  0  0  0  0  0  0  0  0  0  0
    0.9905   -3.8670    7.1685 C   0  0  0  0  0  0  0  0  0  0  0  0
   -0.8066   -5.7742    0.4617 N   0  0  0  0  0  0  0  0  0  0  0  0
   -4.8548   -5.8751    1.4004 N   0  3  1  0  0  0  0  0  0  0  0  0
   -4.8347   -7.1904    5.2328 O   0  5  0  0  0  0  0  0  0  0  0  0
    3.8630   -1.5152    6.8294 O   0  5  0  0  0  0  0  0  0  0  0  0
   -2.0421   -7.5612    1.2723 O   0  0  0  0  0  0  0  0  0  0  0  0
   -3.4500   -7.8139    3.5619 O   0  0  0  0  0  0  0  0  0  0  0  0
    2.9677   -2.6260    8.6122 O   0  0  0  0  0  0  0  0  0  0  0  0
   -1.7802   -6.0680    5.8638 O   0  0  0  0  0  0  0  0  0  0  0  0
   -0.7624   -3.3829    5.6209 O   0  0  0  0  0  0  0  0  0  0  0  0
   -2.7562   -8.0696   -3.9254 H   0  0  0  0  0  0  0  0  0  0  0  0
   -4.8087   -6.6808   -4.0435 H   0  0  0  0  0  0  0  0  0  0  0  0
   -1.3826   -8.0822   -1.8733 H   0  0  0  0  0  0  0  0  0  0  0  0
   -5.4896   -5.3048   -2.1058 H   0  0  0  0  0  0  0  0  0  0  0  0
   -4.0625   -2.6058    2.6531 H   0  0  0  0  0  0  0  0  0  0  0  0
   -2.1155   -1.8987    3.9890 H   0  0  0  0  0  0  0  0  0  0  0  0
   -9.1887   -5.3592    0.5300 H   0  0  0  0  0  0  0  0  0  0  0  0
   -8.6312   -6.6500    1.7462 H   0  0  0  0  0  0  0  0  0  0  0  0
   -6.9710   -5.2133   -0.3963 H   0  0  0  0  0  0  0  0  0  0  0  0
    1.9476   -2.3100    3.2482 H   0  0  0  0  0  0  0  0  0  0  0  0
    2.6853   -2.4312    1.6313 H   0  0  0  0  0  0  0  0  0  0  0  0
    3.1113   -4.7922    2.2884 H   0  0  0  0  0  0  0  0  0  0  0  0
    1.8109   -4.7861    3.5048 H   0  0  0  0  0  0  0  0  0  0  0  0
   -0.2626   -3.1271    2.4350 H   0  0  0  0  0  0  0  0  0  0  0  0
    0.3270   -2.5644    0.8519 H   0  0  0  0  0  0  0  0  0  0  0  0
   -0.3453   -6.2728    7.3070 H   0  0  0  0  0  0  0  0  0  0  0  0
   -1.5441   -5.0000    7.6097 H   0  0  0  0  0  0  0  0  0  0  0  0
    1.5529   -4.6513    0.3823 H   0  0  0  0  0  0  0  0  0  0  0  0
    0.5654   -4.9320    5.3487 H   0  0  0  0  0  0  0  0  0  0  0  0
   -3.4019   -4.5224    0.7079 H   0  0  0  0  0  0  0  0  0  0  0  0
   -5.0019   -4.3356   -0.0240 H   0  0  0  0  0  0  0  0  0  0  0  0
   -5.9505   -5.6131    3.1531 H   0  0  0  0  0  0  0  0  0  0  0  0
   -5.7488   -4.1570    2.1685 H   0  0  0  0  0  0  0  0  0  0  0  0
   -5.6108   -7.3365    0.0998 H   0  0  0  0  0  0  0  0  0  0  0  0
   -6.2808   -7.3714    1.7455 H   0  0  0  0  0  0  0  0  0  0  0  0
    2.5198   -3.5060    5.7381 H   0  0  0  0  0  0  0  0  0  0  0  0
    1.4412   -2.1300    5.9735 H   0  0  0  0  0  0  0  0  0  0  0  0
   -0.4791   -5.5136    2.4806 H   0  0  0  0  0  0  0  0  0  0  0  0
    0.6202   -6.6497    1.6645 H   0  0  0  0  0  0  0  0  0  0  0  0
    0.4213   -3.3656    7.9493 H   0  0  0  0  0  0  0  0  0  0  0  0
    1.5248   -4.6990    7.6263 H   0  0  0  0  0  0  0  0  0  0  0  0
   -0.6429   -5.1503   -0.3217 H   0  0  0  0  0  0  0  0  0  0  0  0
   -4.1236   -6.5363    1.7097 H   0  0  0  0  0  0  0  0  0  0  0  0
  1  2  1  0  0  0  0
  1  3  2  0  0  0  0
  2  4  2  0  0  0  0
  3  7  1  0  0  0  0
  4  9  1  0  0  0  0
  5  6  2  0  0  0  0
  5 10  1  0  0  0  0
  6 11  1  0  0  0  0
  7  9  2  0  0  0  0
  7 15  1  0  0  0  0
  8 10  2  0  0  0  0
  8 12  1  0  0  0  0
  8 16  1  0  0  0  0
  9 24  1  0  0  0  0
 10 25  1  0  0  0  0
 11 12  2  0  0  0  0
 11 38  1  0  0  0  0
 12 37  1  0  0  0  0
 13 14  2  0  0  0  0
 14 26  1  0  0  0  0
 15 30  1  0  0  0  0
 15 34  2  0  0  0  0
 16 32  1  0  0  0  0
 16 35  2  0  0  0  0
 17 27  1  0  0  0  0
 17 33  1  0  0  0  0
 17 36  2  0  0  0  0
 18 19  1  0  0  0  0
 18 20  1  0  0  0  0
 19 22  1  0  0  0  0
 20 22  1  0  0  0  0
 21 23  1  0  0  0  0
 21 37  1  0  0  0  0
 22 28  1  0  0  0  0
 23 29  1  0  0  0  0
 23 38  1  0  0  0  0
 24 31  1  0  0  0  0
 25 31  1  0  0  0  0
 26 31  1  0  0  0  0
 27 29  1  0  0  0  0
 28 30  1  0  0  0  0
  1 39  1  0  0  0  0
  2 40  1  0  0  0  0
  3 41  1  0  0  0  0
  4 42  1  0  0  0  0
  5 43  1  0  0  0  0
  6 44  1  0  0  0  0
 13 45  1  0  0  0  0
 13 46  1  0  0  0  0
 14 47  1  0  0  0  0
 18 48  1  0  0  0  0
 18 49  1  0  0  0  0
 19 50  1  0  0  0  0
 19 51  1  0  0  0  0
 20 52  1  0  0  0  0
 20 53  1  0  0  0  0
 21 54  1  0  0  0  0
 21 55  1  0  0  0  0
 22 56  1  0  0  0  0
 23 57  1  0  0  0  0
 24 58  1  0  0  0  0
 24 59  1  0  0  0  0
 25 60  1  0  0  0  0
 25 61  1  0  0  0  0
 26 62  1  0  0  0  0
 26 63  1  0  0  0  0
 27 64  1  0  0  0  0
 27 65  1  0  0  0  0
 28 66  1  0  0  0  0
 28 67  1  0  0  0  0
 29 68  1  0  0  0  0
 29 69  1  0  0  0  0
 30 70  1  0  0  0  0
 31 71  1  0  0  0  0
M  CHG  3  31   1  32  -1  33  -1
M  END
$$$$
