AVX38780_2
  -OEChem-04011314593D

 75 78  0     1  0  0  0  0  0999 V2000
    2.1393    2.5424   -4.5505 C   0  0  0  0  0  0  0  0  0  0  0  0
    1.2941    1.9909   -5.5133 C   0  0  0  0  0  0  0  0  0  0  0  0
    2.4431    1.8230   -3.3947 C   0  0  0  0  0  0  0  0  0  0  0  0
    0.7525    0.7201   -5.3203 C   0  0  0  0  0  0  0  0  0  0  0  0
   -3.2512   -1.9004   -1.0767 C   0  0  0  0  0  0  0  0  0  0  0  0
   -0.1297   -0.4911    1.4801 C   0  0  0  0  0  0  0  0  0  0  0  0
    1.1915   -2.4393    0.9357 C   0  0  0  0  0  0  0  0  0  0  0  0
   -4.5948   -1.8159   -0.7109 C   0  0  0  0  0  0  0  0  0  0  0  0
   -1.1658   -1.3161    1.9177 C   0  0  0  0  0  0  0  0  0  0  0  0
    0.1554   -3.2642    1.3734 C   0  0  0  0  0  0  0  0  0  0  0  0
    1.9015    0.5521   -3.2017 C   0  0  0  0  0  0  0  0  0  0  0  0
   -3.4112    0.2432   -2.1837 C   0  0  0  0  0  0  0  0  0  0  0  0
    1.0490   -1.0527    0.9891 C   0  0  0  0  0  0  0  0  0  0  0  0
    1.0562    0.0006   -4.1645 C   0  0  0  0  0  0  0  0  0  0  0  0
   -2.6589   -0.8698   -1.8075 C   0  0  0  0  0  0  0  0  0  0  0  0
   -5.3438   -0.6966   -1.0748 C   0  0  0  0  0  0  0  0  0  0  0  0
   -4.7582    0.3222   -1.8295 C   0  0  0  0  0  0  0  0  0  0  0  0
   -1.0233   -2.7026    1.8644 C   0  0  0  0  0  0  0  0  0  0  0  0
   -0.6786   -4.8716   -3.8546 C   0  0  0  0  0  0  0  0  0  0  0  0
   -1.2017   -3.7925   -3.2623 C   0  0  0  0  0  0  0  0  0  0  0  0
    2.2346   -0.1770   -1.9854 C   0  0  0  0  0  0  0  0  0  0  0  0
   -2.7827    1.3278   -2.9653 C   0  0  0  0  0  0  0  0  0  0  0  0
   -8.6360    0.5551    1.9983 C   0  0  0  0  0  0  0  0  0  0  0  0
   -6.8648    1.2509   -2.1334 C   0  0  0  0  0  0  0  0  0  0  0  0
   -7.2151    0.6528   -0.7773 C   0  0  1  0  0  0  0  0  0  0  0  0
   -1.8218   -4.9159    2.2102 C   0  0  0  0  0  0  0  0  0  0  0  0
    2.1646   -0.1649    0.5186 C   0  0  0  0  0  0  0  0  0  0  0  0
    0.4594   -1.3638   -3.9824 C   0  0  0  0  0  0  0  0  0  0  0  0
   -1.2157   -0.9880   -2.1764 C   0  0  0  0  0  0  0  0  0  0  0  0
   -1.7059   -2.5979   -4.0028 C   0  0  0  0  0  0  0  0  0  0  0  0
   -9.0797   -0.1484    0.7102 C   0  0  0  0  0  0  0  0  0  0  0  0
   -8.7211    0.5280   -0.5991 C   0  0  0  0  0  0  0  0  0  0  0  0
    1.8815    0.4216   -0.7716 N   0  0  0  0  0  0  0  0  0  0  0  0
   -1.0008   -1.3248   -3.6097 N   0  3  2  0  0  0  0  0  0  0  0  0
   -2.2297    2.3003   -2.3324 O   0  5  0  0  0  0  0  0  0  0  0  0
   -8.3865   -0.1873    2.9873 O   0  5  0  0  0  0  0  0  0  0  0  0
    2.8240   -1.2691   -2.0483 O   0  0  0  0  0  0  0  0  0  0  0  0
   -2.8133    1.2578   -4.2484 O   0  0  0  0  0  0  0  0  0  0  0  0
   -8.5620    1.8141    1.9022 O   0  0  0  0  0  0  0  0  0  0  0  0
   -5.4491    1.4300   -2.2445 O   0  0  0  0  0  0  0  0  0  0  0  0
   -6.6517   -0.6615   -0.6684 O   0  0  0  0  0  0  0  0  0  0  0  0
   -2.0340   -3.5074    2.2926 O   0  0  0  0  0  0  0  0  0  0  0  0
    2.5615    3.5320   -4.7004 H   0  0  0  0  0  0  0  0  0  0  0  0
    1.0577    2.5517   -6.4130 H   0  0  0  0  0  0  0  0  0  0  0  0
    3.1022    2.2642   -2.6514 H   0  0  0  0  0  0  0  0  0  0  0  0
    0.0954    0.2994   -6.0769 H   0  0  0  0  0  0  0  0  0  0  0  0
   -2.6725   -2.7723   -0.7833 H   0  0  0  0  0  0  0  0  0  0  0  0
   -0.2493    0.5880    1.5252 H   0  0  0  0  0  0  0  0  0  0  0  0
    2.1063   -2.8857    0.5546 H   0  0  0  0  0  0  0  0  0  0  0  0
   -5.0453   -2.6183   -0.1331 H   0  0  0  0  0  0  0  0  0  0  0  0
   -2.0816   -0.8725    2.2995 H   0  0  0  0  0  0  0  0  0  0  0  0
    0.2726   -4.3434    1.3296 H   0  0  0  0  0  0  0  0  0  0  0  0
   -0.3334   -5.7111   -3.2610 H   0  0  0  0  0  0  0  0  0  0  0  0
   -0.5865   -4.9385   -4.9329 H   0  0  0  0  0  0  0  0  0  0  0  0
   -1.2762   -3.7783   -2.1781 H   0  0  0  0  0  0  0  0  0  0  0  0
   -7.1990    0.6124   -2.9611 H   0  0  0  0  0  0  0  0  0  0  0  0
   -7.3297    2.2351   -2.2542 H   0  0  0  0  0  0  0  0  0  0  0  0
   -6.8037    1.2669    0.0353 H   0  0  0  0  0  0  0  0  0  0  0  0
   -2.7047   -5.4406    2.5834 H   0  0  0  0  0  0  0  0  0  0  0  0
   -0.9450   -5.1885    2.8029 H   0  0  0  0  0  0  0  0  0  0  0  0
   -1.6526   -5.1893    1.1660 H   0  0  0  0  0  0  0  0  0  0  0  0
    2.3351    0.6507    1.2298 H   0  0  0  0  0  0  0  0  0  0  0  0
    3.1025   -0.7239    0.4337 H   0  0  0  0  0  0  0  0  0  0  0  0
    0.5337   -1.9544   -4.9018 H   0  0  0  0  0  0  0  0  0  0  0  0
    0.9721   -1.9169   -3.1881 H   0  0  0  0  0  0  0  0  0  0  0  0
   -0.6760   -0.0500   -1.9941 H   0  0  0  0  0  0  0  0  0  0  0  0
   -0.7156   -1.7732   -1.5950 H   0  0  0  0  0  0  0  0  0  0  0  0
   -2.7674   -2.4409   -3.7881 H   0  0  0  0  0  0  0  0  0  0  0  0
   -1.5800   -2.6948   -5.0858 H   0  0  0  0  0  0  0  0  0  0  0  0
  -10.1737   -0.2168    0.7616 H   0  0  0  0  0  0  0  0  0  0  0  0
   -8.6930   -1.1751    0.7226 H   0  0  0  0  0  0  0  0  0  0  0  0
   -9.1569    1.5228   -0.6742 H   0  0  0  0  0  0  0  0  0  0  0  0
   -9.0950   -0.0643   -1.4339 H   0  0  0  0  0  0  0  0  0  0  0  0
    1.4582    1.3438   -0.7765 H   0  0  0  0  0  0  0  0  0  0  0  0
   -1.4233   -0.5712   -4.1762 H   0  0  0  0  0  0  0  0  0  0  0  0
  1  2  1  0  0  0  0
  1  3  2  0  0  0  0
  2  4  2  0  0  0  0
  3 11  1  0  0  0  0
  4 14  1  0  0  0  0
  5  8  2  0  0  0  0
  5 15  1  0  0  0  0
  6  9  2  0  0  0  0
  6 13  1  0  0  0  0
  7 10  1  0  0  0  0
  7 13  2  0  0  0  0
  8 16  1  0  0  0  0
  9 18  1  0  0  0  0
 10 18  2  0  0  0  0
 11 14  2  0  0  0  0
 11 21  1  0  0  0  0
 12 15  2  0  0  0  0
 12 17  1  0  0  0  0
 12 22  1  0  0  0  0
 13 27  1  0  0  0  0
 14 28  1  0  0  0  0
 15 29  1  0  0  0  0
 16 17  2  0  0  0  0
 16 41  1  0  0  0  0
 17 40  1  0  0  0  0
 18 42  1  0  0  0  0
 19 20  2  0  0  0  0
 20 30  1  0  0  0  0
 21 33  1  0  0  0  0
 21 37  2  0  0  0  0
 22 35  1  0  0  0  0
 22 38  2  0  0  0  0
 23 31  1  0  0  0  0
 23 36  1  0  0  0  0
 23 39  2  0  0  0  0
 24 25  1  0  0  0  0
 24 40  1  0  0  0  0
 25 32  1  0  0  0  0
 25 41  1  0  0  0  0
 26 42  1  0  0  0  0
 27 33  1  0  0  0  0
 28 34  1  0  0  0  0
 29 34  1  0  0  0  0
 30 34  1  0  0  0  0
 31 32  1  0  0  0  0
  1 43  1  0  0  0  0
  2 44  1  0  0  0  0
  3 45  1  0  0  0  0
  4 46  1  0  0  0  0
  5 47  1  0  0  0  0
  6 48  1  0  0  0  0
  7 49  1  0  0  0  0
  8 50  1  0  0  0  0
  9 51  1  0  0  0  0
 10 52  1  0  0  0  0
 19 53  1  0  0  0  0
 19 54  1  0  0  0  0
 20 55  1  0  0  0  0
 24 56  1  0  0  0  0
 24 57  1  0  0  0  0
 25 58  1  0  0  0  0
 26 59  1  0  0  0  0
 26 60  1  0  0  0  0
 26 61  1  0  0  0  0
 27 62  1  0  0  0  0
 27 63  1  0  0  0  0
 28 64  1  0  0  0  0
 28 65  1  0  0  0  0
 29 66  1  0  0  0  0
 29 67  1  0  0  0  0
 30 68  1  0  0  0  0
 30 69  1  0  0  0  0
 31 70  1  0  0  0  0
 31 71  1  0  0  0  0
 32 72  1  0  0  0  0
 32 73  1  0  0  0  0
 33 74  1  0  0  0  0
 34 75  1  0  0  0  0
M  CHG  3  34   1  35  -1  36  -1
M  END
$$$$
