AVX38741_3
  -OEChem-04011314563D

 65 69  0     1  0  0  0  0  0999 V2000
    4.0924    0.8181   -4.4391 C   0  0  0  0  0  0  0  0  0  0  0  0
   -0.9129    0.8768    2.8543 C   0  0  0  0  0  0  0  0  0  0  0  0
   -1.8109    1.5847    2.0580 C   0  0  0  0  0  0  0  0  0  0  0  0
    3.0575   -0.0370   -4.8176 C   0  0  0  0  0  0  0  0  0  0  0  0
    4.5680    0.7999   -3.1279 C   0  0  0  0  0  0  0  0  0  0  0  0
    0.1514    0.1930    2.2689 C   0  0  0  0  0  0  0  0  0  0  0  0
   -1.6448    1.6171    0.6725 C   0  0  0  0  0  0  0  0  0  0  0  0
    2.4981   -0.9103   -3.8848 C   0  0  0  0  0  0  0  0  0  0  0  0
    4.0085   -0.0734   -2.1952 C   0  0  0  0  0  0  0  0  0  0  0  0
   -2.6694   -2.7505   -3.4888 C   0  0  0  0  0  0  0  0  0  0  0  0
   -2.8298   -3.6371   -4.5539 C   0  0  0  0  0  0  0  0  0  0  0  0
    0.3121    0.2117    0.8783 C   0  0  0  0  0  0  0  0  0  0  0  0
   -1.8965   -1.0439   -5.0173 C   0  0  0  0  0  0  0  0  0  0  0  0
   -0.5790    0.9389    0.0662 C   0  0  0  0  0  0  0  0  0  0  0  0
    2.9735   -0.9285   -2.5736 C   0  0  0  0  0  0  0  0  0  0  0  0
   -2.2086   -1.4541   -3.7209 C   0  0  0  0  0  0  0  0  0  0  0  0
   -2.5312   -3.2229   -5.8523 C   0  0  0  0  0  0  0  0  0  0  0  0
   -2.0442   -1.9342   -6.0812 C   0  0  0  0  0  0  0  0  0  0  0  0
    1.4688   -0.5195    0.3002 C   0  0  0  0  0  0  0  0  0  0  0  0
   -1.4001    0.3265   -5.2576 C   0  0  0  0  0  0  0  0  0  0  0  0
   -5.2094   -5.1092   -9.1868 C   0  0  0  0  0  0  0  0  0  0  0  0
   -0.4028    1.0007   -1.4264 C   0  0  0  0  0  0  0  0  0  0  0  0
   -1.5629   -2.5495   -8.2680 C   0  0  0  0  0  0  0  0  0  0  0  0
   -0.0811   -1.5198   -1.4068 C   0  0  0  0  0  0  0  0  0  0  0  0
   -2.7384   -3.5107   -8.1513 C   0  0  1  0  0  0  0  0  0  0  0  0
    2.3717   -1.8681   -1.5691 C   0  0  0  0  0  0  0  0  0  0  0  0
   -2.0549   -0.5234   -2.5542 C   0  0  0  0  0  0  0  0  0  0  0  0
   -3.7746   -5.6274   -9.0329 C   0  0  0  0  0  0  0  0  0  0  0  0
   -2.6580   -4.6140   -9.1960 C   0  0  0  0  0  0  0  0  0  0  0  0
    1.2500   -1.2662   -0.8644 N   0  0  0  0  0  0  0  0  0  0  0  0
   -0.6200   -0.3174   -2.1491 N   0  3  1  0  0  0  0  0  0  0  0  0
   -2.2544    1.2558   -5.4994 O   0  5  0  0  0  0  0  0  0  0  0  0
   -6.0981   -5.7076   -8.5209 O   0  5  0  0  0  0  0  0  0  0  0  0
    2.5525   -0.4087    0.8716 O   0  0  0  0  0  0  0  0  0  0  0  0
   -0.1328    0.5371   -5.2159 O   0  0  0  0  0  0  0  0  0  0  0  0
   -5.3221   -4.1198   -9.9668 O   0  0  0  0  0  0  0  0  0  0  0  0
   -1.7031   -1.4796   -7.3277 O   0  0  0  0  0  0  0  0  0  0  0  0
   -2.7290   -4.1314   -6.8585 O   0  0  0  0  0  0  0  0  0  0  0  0
    4.5288    1.4971   -5.1658 H   0  0  0  0  0  0  0  0  0  0  0  0
   -1.0430    0.8573    3.9324 H   0  0  0  0  0  0  0  0  0  0  0  0
   -2.6399    2.1159    2.5166 H   0  0  0  0  0  0  0  0  0  0  0  0
    2.6879   -0.0238   -5.8388 H   0  0  0  0  0  0  0  0  0  0  0  0
    5.3744    1.4648   -2.8332 H   0  0  0  0  0  0  0  0  0  0  0  0
    0.8393   -0.3577    2.9052 H   0  0  0  0  0  0  0  0  0  0  0  0
   -2.3530    2.1803    0.0696 H   0  0  0  0  0  0  0  0  0  0  0  0
    1.6919   -1.5729   -4.1886 H   0  0  0  0  0  0  0  0  0  0  0  0
    4.3853   -0.0805   -1.1758 H   0  0  0  0  0  0  0  0  0  0  0  0
   -2.9110   -3.0784   -2.4811 H   0  0  0  0  0  0  0  0  0  0  0  0
   -3.1988   -4.6416   -4.3655 H   0  0  0  0  0  0  0  0  0  0  0  0
   -1.0682    1.7394   -1.8886 H   0  0  0  0  0  0  0  0  0  0  0  0
    0.6193    1.3208   -1.6654 H   0  0  0  0  0  0  0  0  0  0  0  0
   -0.6044   -3.0507   -8.0818 H   0  0  0  0  0  0  0  0  0  0  0  0
   -1.5249   -2.1039   -9.2677 H   0  0  0  0  0  0  0  0  0  0  0  0
   -0.0527   -2.3560   -2.1139 H   0  0  0  0  0  0  0  0  0  0  0  0
   -0.7779   -1.7572   -0.5950 H   0  0  0  0  0  0  0  0  0  0  0  0
   -3.6905   -2.9742   -8.2633 H   0  0  0  0  0  0  0  0  0  0  0  0
    2.0120   -2.7792   -2.0596 H   0  0  0  0  0  0  0  0  0  0  0  0
    3.1124   -2.1718   -0.8219 H   0  0  0  0  0  0  0  0  0  0  0  0
   -2.4629    0.4673   -2.7815 H   0  0  0  0  0  0  0  0  0  0  0  0
   -2.5791   -0.9057   -1.6716 H   0  0  0  0  0  0  0  0  0  0  0  0
   -3.6434   -6.3955   -9.8055 H   0  0  0  0  0  0  0  0  0  0  0  0
   -3.6880   -6.1309   -8.0618 H   0  0  0  0  0  0  0  0  0  0  0  0
   -2.6708   -4.1518  -10.1817 H   0  0  0  0  0  0  0  0  0  0  0  0
   -1.6935   -5.1055   -9.0702 H   0  0  0  0  0  0  0  0  0  0  0  0
   -0.0826   -0.2516   -3.0240 H   0  0  0  0  0  0  0  0  0  0  0  0
  1  4  1  0  0  0  0
  1  5  2  0  0  0  0
  2  3  1  0  0  0  0
  2  6  2  0  0  0  0
  3  7  2  0  0  0  0
  4  8  2  0  0  0  0
  5  9  1  0  0  0  0
  6 12  1  0  0  0  0
  7 14  1  0  0  0  0
  8 15  1  0  0  0  0
  9 15  2  0  0  0  0
 10 11  2  0  0  0  0
 10 16  1  0  0  0  0
 11 17  1  0  0  0  0
 12 14  2  0  0  0  0
 12 19  1  0  0  0  0
 13 16  2  0  0  0  0
 13 18  1  0  0  0  0
 13 20  1  0  0  0  0
 14 22  1  0  0  0  0
 15 26  1  0  0  0  0
 16 27  1  0  0  0  0
 17 18  2  0  0  0  0
 17 38  1  0  0  0  0
 18 37  1  0  0  0  0
 19 30  1  0  0  0  0
 19 34  2  0  0  0  0
 20 32  1  0  0  0  0
 20 35  2  0  0  0  0
 21 28  1  0  0  0  0
 21 33  1  0  0  0  0
 21 36  2  0  0  0  0
 22 31  1  0  0  0  0
 23 25  1  0  0  0  0
 23 37  1  0  0  0  0
 24 30  1  0  0  0  0
 24 31  1  0  0  0  0
 25 29  1  0  0  0  0
 25 38  1  0  0  0  0
 26 30  1  0  0  0  0
 27 31  1  0  0  0  0
 28 29  1  0  0  0  0
  1 39  1  0  0  0  0
  2 40  1  0  0  0  0
  3 41  1  0  0  0  0
  4 42  1  0  0  0  0
  5 43  1  0  0  0  0
  6 44  1  0  0  0  0
  7 45  1  0  0  0  0
  8 46  1  0  0  0  0
  9 47  1  0  0  0  0
 10 48  1  0  0  0  0
 11 49  1  0  0  0  0
 22 50  1  0  0  0  0
 22 51  1  0  0  0  0
 23 52  1  0  0  0  0
 23 53  1  0  0  0  0
 24 54  1  0  0  0  0
 24 55  1  0  0  0  0
 25 56  1  0  0  0  0
 26 57  1  0  0  0  0
 26 58  1  0  0  0  0
 27 59  1  0  0  0  0
 27 60  1  0  0  0  0
 28 61  1  0  0  0  0
 28 62  1  0  0  0  0
 29 63  1  0  0  0  0
 29 64  1  0  0  0  0
 31 65  1  0  0  0  0
M  CHG  3  31   1  32  -1  33  -1
M  END
$$$$
