AVX38780_3
  -OEChem-04011314593D

 75 78  0     1  0  0  0  0  0999 V2000
    0.2595   -3.7172   -7.9077 C   0  0  0  0  0  0  0  0  0  0  0  0
    1.3322   -3.2332   -7.1589 C   0  0  0  0  0  0  0  0  0  0  0  0
   -0.9978   -3.8519   -7.3189 C   0  0  0  0  0  0  0  0  0  0  0  0
    1.1475   -2.8840   -5.8211 C   0  0  0  0  0  0  0  0  0  0  0  0
   -2.0092   -2.8069   -0.6774 C   0  0  0  0  0  0  0  0  0  0  0  0
   -6.1644   -3.8772   -7.4550 C   0  0  0  0  0  0  0  0  0  0  0  0
   -6.0194   -5.1997   -5.4384 C   0  0  0  0  0  0  0  0  0  0  0  0
   -3.0247   -3.5450   -0.0691 C   0  0  0  0  0  0  0  0  0  0  0  0
   -6.9158   -4.8840   -8.0612 C   0  0  0  0  0  0  0  0  0  0  0  0
   -6.7708   -6.2065   -6.0445 C   0  0  0  0  0  0  0  0  0  0  0  0
   -1.1824   -3.5027   -5.9811 C   0  0  0  0  0  0  0  0  0  0  0  0
   -3.6620   -1.4625   -1.8206 C   0  0  0  0  0  0  0  0  0  0  0  0
   -5.7162   -4.0351   -6.1436 C   0  0  0  0  0  0  0  0  0  0  0  0
   -0.1098   -3.0187   -5.2322 C   0  0  0  0  0  0  0  0  0  0  0  0
   -2.3274   -1.7637   -1.5477 C   0  0  0  0  0  0  0  0  0  0  0  0
   -4.3596   -3.2350   -0.3307 C   0  0  0  0  0  0  0  0  0  0  0  0
   -4.6780   -2.2086   -1.2227 C   0  0  0  0  0  0  0  0  0  0  0  0
   -7.2190   -6.0486   -7.3560 C   0  0  0  0  0  0  0  0  0  0  0  0
    1.4316    1.2788   -3.3894 C   0  0  0  0  0  0  0  0  0  0  0  0
    1.0509    0.0831   -3.8524 C   0  0  0  0  0  0  0  0  0  0  0  0
   -2.5055   -3.6539   -5.3909 C   0  0  0  0  0  0  0  0  0  0  0  0
   -3.9946   -0.3633   -2.7497 C   0  0  0  0  0  0  0  0  0  0  0  0
   -7.2806   -3.9214    3.2535 C   0  0  0  0  0  0  0  0  0  0  0  0
   -6.8940   -2.9000   -1.1624 C   0  0  0  0  0  0  0  0  0  0  0  0
   -6.6061   -3.3666    0.2584 C   0  0  1  0  0  0  0  0  0  0  0  0
   -8.2270   -8.1945   -7.1692 C   0  0  0  0  0  0  0  0  0  0  0  0
   -4.9079   -2.9513   -5.4908 C   0  0  0  0  0  0  0  0  0  0  0  0
   -0.2799   -2.6362   -3.7915 C   0  0  0  0  0  0  0  0  0  0  0  0
   -1.2157   -0.9880   -2.1764 C   0  0  0  0  0  0  0  0  0  0  0  0
   -0.3192   -0.2135   -4.3666 C   0  0  0  0  0  0  0  0  0  0  0  0
   -7.2999   -4.9330    2.1014 C   0  0  0  0  0  0  0  0  0  0  0  0
   -7.6275   -4.3950    0.7216 C   0  0  0  0  0  0  0  0  0  0  0  0
   -3.5466   -2.9254   -5.9754 N   0  0  0  0  0  0  0  0  0  0  0  0
   -1.0008   -1.3248   -3.6097 N   0  3  1  0  0  0  0  0  0  0  0  0
   -4.1459    0.8203   -2.2721 O   0  5  0  0  0  0  0  0  0  0  0  0
   -6.4931   -4.1700    4.2071 O   0  5  0  0  0  0  0  0  0  0  0  0
   -2.6727   -4.3862   -4.4009 O   0  0  0  0  0  0  0  0  0  0  0  0
   -4.1203   -0.6326   -4.0002 O   0  0  0  0  0  0  0  0  0  0  0  0
   -8.0617   -2.9394    3.0941 O   0  0  0  0  0  0  0  0  0  0  0  0
   -5.9678   -1.8781   -1.5450 O   0  0  0  0  0  0  0  0  0  0  0  0
   -5.3116   -3.9813    0.3126 O   0  0  0  0  0  0  0  0  0  0  0  0
   -7.9533   -7.0303   -7.9473 O   0  0  0  0  0  0  0  0  0  0  0  0
    0.4027   -3.9892   -8.9497 H   0  0  0  0  0  0  0  0  0  0  0  0
    2.3110   -3.1288   -7.6179 H   0  0  0  0  0  0  0  0  0  0  0  0
   -1.8254   -4.2313   -7.9128 H   0  0  0  0  0  0  0  0  0  0  0  0
    1.9898   -2.5074   -5.2467 H   0  0  0  0  0  0  0  0  0  0  0  0
   -0.9717   -3.0499   -0.4630 H   0  0  0  0  0  0  0  0  0  0  0  0
   -5.9328   -2.9733   -8.0119 H   0  0  0  0  0  0  0  0  0  0  0  0
   -5.6742   -5.3314   -4.4161 H   0  0  0  0  0  0  0  0  0  0  0  0
   -2.7681   -4.3491    0.6151 H   0  0  0  0  0  0  0  0  0  0  0  0
   -7.2624   -4.7550   -9.0832 H   0  0  0  0  0  0  0  0  0  0  0  0
   -7.0039   -7.1110   -5.4898 H   0  0  0  0  0  0  0  0  0  0  0  0
    2.4443    1.4331   -3.0331 H   0  0  0  0  0  0  0  0  0  0  0  0
    0.7473    2.1193   -3.3581 H   0  0  0  0  0  0  0  0  0  0  0  0
    1.7775   -0.7250   -3.8671 H   0  0  0  0  0  0  0  0  0  0  0  0
   -6.8208   -3.7220   -1.8859 H   0  0  0  0  0  0  0  0  0  0  0  0
   -7.9001   -2.4733   -1.2335 H   0  0  0  0  0  0  0  0  0  0  0  0
   -6.6074   -2.5160    0.9536 H   0  0  0  0  0  0  0  0  0  0  0  0
   -8.8201   -8.8972   -7.7596 H   0  0  0  0  0  0  0  0  0  0  0  0
   -8.7723   -7.9102   -6.2657 H   0  0  0  0  0  0  0  0  0  0  0  0
   -7.2816   -8.6650   -6.8888 H   0  0  0  0  0  0  0  0  0  0  0  0
   -5.3530   -1.9689   -5.6826 H   0  0  0  0  0  0  0  0  0  0  0  0
   -4.8740   -3.0865   -4.4046 H   0  0  0  0  0  0  0  0  0  0  0  0
   -0.8577   -3.3908   -3.2471 H   0  0  0  0  0  0  0  0  0  0  0  0
    0.6897   -2.5341   -3.2922 H   0  0  0  0  0  0  0  0  0  0  0  0
   -1.4067    0.0920   -2.1370 H   0  0  0  0  0  0  0  0  0  0  0  0
   -0.2604   -1.1716   -1.6681 H   0  0  0  0  0  0  0  0  0  0  0  0
   -0.2687   -0.5378   -5.4106 H   0  0  0  0  0  0  0  0  0  0  0  0
   -0.9853    0.6528   -4.3026 H   0  0  0  0  0  0  0  0  0  0  0  0
   -8.0655   -5.6752    2.3603 H   0  0  0  0  0  0  0  0  0  0  0  0
   -6.3369   -5.4584    2.0824 H   0  0  0  0  0  0  0  0  0  0  0  0
   -8.6135   -3.9345    0.6896 H   0  0  0  0  0  0  0  0  0  0  0  0
   -7.6151   -5.2086   -0.0032 H   0  0  0  0  0  0  0  0  0  0  0  0
   -3.3419   -2.2939   -6.7430 H   0  0  0  0  0  0  0  0  0  0  0  0
   -1.9300   -1.4433   -4.0454 H   0  0  0  0  0  0  0  0  0  0  0  0
  1  2  1  0  0  0  0
  1  3  2  0  0  0  0
  2  4  2  0  0  0  0
  3 11  1  0  0  0  0
  4 14  1  0  0  0  0
  5  8  2  0  0  0  0
  5 15  1  0  0  0  0
  6  9  2  0  0  0  0
  6 13  1  0  0  0  0
  7 10  1  0  0  0  0
  7 13  2  0  0  0  0
  8 16  1  0  0  0  0
  9 18  1  0  0  0  0
 10 18  2  0  0  0  0
 11 14  2  0  0  0  0
 11 21  1  0  0  0  0
 12 15  2  0  0  0  0
 12 17  1  0  0  0  0
 12 22  1  0  0  0  0
 13 27  1  0  0  0  0
 14 28  1  0  0  0  0
 15 29  1  0  0  0  0
 16 17  2  0  0  0  0
 16 41  1  0  0  0  0
 17 40  1  0  0  0  0
 18 42  1  0  0  0  0
 19 20  2  0  0  0  0
 20 30  1  0  0  0  0
 21 33  1  0  0  0  0
 21 37  2  0  0  0  0
 22 35  1  0  0  0  0
 22 38  2  0  0  0  0
 23 31  1  0  0  0  0
 23 36  1  0  0  0  0
 23 39  2  0  0  0  0
 24 25  1  0  0  0  0
 24 40  1  0  0  0  0
 25 32  1  0  0  0  0
 25 41  1  0  0  0  0
 26 42  1  0  0  0  0
 27 33  1  0  0  0  0
 28 34  1  0  0  0  0
 29 34  1  0  0  0  0
 30 34  1  0  0  0  0
 31 32  1  0  0  0  0
  1 43  1  0  0  0  0
  2 44  1  0  0  0  0
  3 45  1  0  0  0  0
  4 46  1  0  0  0  0
  5 47  1  0  0  0  0
  6 48  1  0  0  0  0
  7 49  1  0  0  0  0
  8 50  1  0  0  0  0
  9 51  1  0  0  0  0
 10 52  1  0  0  0  0
 19 53  1  0  0  0  0
 19 54  1  0  0  0  0
 20 55  1  0  0  0  0
 24 56  1  0  0  0  0
 24 57  1  0  0  0  0
 25 58  1  0  0  0  0
 26 59  1  0  0  0  0
 26 60  1  0  0  0  0
 26 61  1  0  0  0  0
 27 62  1  0  0  0  0
 27 63  1  0  0  0  0
 28 64  1  0  0  0  0
 28 65  1  0  0  0  0
 29 66  1  0  0  0  0
 29 67  1  0  0  0  0
 30 68  1  0  0  0  0
 30 69  1  0  0  0  0
 31 70  1  0  0  0  0
 31 71  1  0  0  0  0
 32 72  1  0  0  0  0
 32 73  1  0  0  0  0
 33 74  1  0  0  0  0
 34 75  1  0  0  0  0
M  CHG  3  34   1  35  -1  36  -1
M  END
$$$$
