AVX38753_1
  -OEChem-04011314583D

 71 74  0     1  0  0  0  0  0999 V2000
    2.8954   -7.7181    0.6243 C   0  0  0  0  0  0  0  0  0  0  0  0
    5.9311    0.0388   -2.1815 C   0  0  0  0  0  0  0  0  0  0  0  0
    3.2831   -6.8939    1.6808 C   0  0  0  0  0  0  0  0  0  0  0  0
    3.6245   -7.7170   -0.5649 C   0  0  0  0  0  0  0  0  0  0  0  0
    4.9945    0.8844   -1.5871 C   0  0  0  0  0  0  0  0  0  0  0  0
    6.3261   -1.1308   -1.5320 C   0  0  0  0  0  0  0  0  0  0  0  0
    4.3997   -6.0686    1.5480 C   0  0  0  0  0  0  0  0  0  0  0  0
    4.7411   -6.8917   -0.6976 C   0  0  0  0  0  0  0  0  0  0  0  0
    4.4530    0.5606   -0.3431 C   0  0  0  0  0  0  0  0  0  0  0  0
   -0.1342   -2.7316    1.8471 C   0  0  0  0  0  0  0  0  0  0  0  0
   -1.0876   -3.7451    1.7464 C   0  0  0  0  0  0  0  0  0  0  0  0
    5.7845   -1.4546   -0.2880 C   0  0  0  0  0  0  0  0  0  0  0  0
    0.9782   -3.5729   -0.1279 C   0  0  0  0  0  0  0  0  0  0  0  0
    5.1287   -6.0675    0.3588 C   0  0  0  0  0  0  0  0  0  0  0  0
    4.8480   -0.6090    0.3065 C   0  0  0  0  0  0  0  0  0  0  0  0
    0.9003   -2.6490    0.9145 C   0  0  0  0  0  0  0  0  0  0  0  0
   -1.0023   -4.6776    0.7122 C   0  0  0  0  0  0  0  0  0  0  0  0
    0.0173   -4.5783   -0.2372 C   0  0  0  0  0  0  0  0  0  0  0  0
    3.2005   -1.5819    5.1214 C   0  0  0  0  0  0  0  0  0  0  0  0
    2.5507   -1.8408    3.9814 C   0  0  0  0  0  0  0  0  0  0  0  0
    6.2150   -2.6816    0.3686 C   0  0  0  0  0  0  0  0  0  0  0  0
    2.0697   -3.4764   -1.1187 C   0  0  0  0  0  0  0  0  0  0  0  0
   -4.4983   -9.1761    0.8235 C   0  0  0  0  0  0  0  0  0  0  0  0
   -1.0650   -6.1927   -1.5070 C   0  0  0  0  0  0  0  0  0  0  0  0
   -1.5828   -6.7443   -0.1852 C   0  0  2  0  0  0  0  0  0  0  0  0
    6.3306   -5.1792    0.2152 C   0  0  0  0  0  0  0  0  0  0  0  0
    4.2499   -0.9325    1.6439 C   0  0  0  0  0  0  0  0  0  0  0  0
    1.9102   -1.5569    1.0567 C   0  0  0  0  0  0  0  0  0  0  0  0
    3.0773   -2.7334    2.9064 C   0  0  0  0  0  0  0  0  0  0  0  0
   -3.2848   -8.2425    0.9052 C   0  0  0  0  0  0  0  0  0  0  0  0
   -2.8130   -7.6156   -0.3927 C   0  0  0  0  0  0  0  0  0  0  0  0
    5.9828   -3.8800   -0.3140 N   0  0  0  0  0  0  0  0  0  0  0  0
    3.2198   -2.0313    1.5800 N   0  3  2  0  0  0  0  0  0  0  0  0
    1.8813   -2.7660   -2.1731 O   0  5  0  0  0  0  0  0  0  0  0  0
   -4.8850   -9.6921    1.9078 O   0  5  0  0  0  0  0  0  0  0  0  0
    6.7430   -2.6414    1.4928 O   0  0  0  0  0  0  0  0  0  0  0  0
    3.1659   -4.1068   -0.8885 O   0  0  0  0  0  0  0  0  0  0  0  0
   -4.9764   -9.3039   -0.3405 O   0  0  0  0  0  0  0  0  0  0  0  0
    0.1349   -5.4426   -1.2936 O   0  0  0  0  0  0  0  0  0  0  0  0
   -1.9553   -5.6612    0.6781 O   0  0  0  0  0  0  0  0  0  0  0  0
    2.0267   -8.3616    0.7283 H   0  0  0  0  0  0  0  0  0  0  0  0
    6.3530    0.2904   -3.1504 H   0  0  0  0  0  0  0  0  0  0  0  0
    2.7162   -6.8954    2.6072 H   0  0  0  0  0  0  0  0  0  0  0  0
    3.3236   -8.3593   -1.3872 H   0  0  0  0  0  0  0  0  0  0  0  0
    4.6876    1.7951   -2.0932 H   0  0  0  0  0  0  0  0  0  0  0  0
    7.0575   -1.7809   -2.0052 H   0  0  0  0  0  0  0  0  0  0  0  0
    4.6942   -5.4296    2.3764 H   0  0  0  0  0  0  0  0  0  0  0  0
    5.3030   -6.8974   -1.6279 H   0  0  0  0  0  0  0  0  0  0  0  0
    3.7236    1.2261    0.1111 H   0  0  0  0  0  0  0  0  0  0  0  0
   -0.2036   -2.0133    2.6598 H   0  0  0  0  0  0  0  0  0  0  0  0
   -1.8833   -3.8086    2.4835 H   0  0  0  0  0  0  0  0  0  0  0  0
    2.7625   -0.9274    5.8671 H   0  0  0  0  0  0  0  0  0  0  0  0
    4.1722   -2.0147    5.3315 H   0  0  0  0  0  0  0  0  0  0  0  0
    1.5766   -1.3856    3.8223 H   0  0  0  0  0  0  0  0  0  0  0  0
   -0.8234   -7.0066   -2.1988 H   0  0  0  0  0  0  0  0  0  0  0  0
   -1.8000   -5.5393   -1.9944 H   0  0  0  0  0  0  0  0  0  0  0  0
   -0.8046   -7.3303    0.3225 H   0  0  0  0  0  0  0  0  0  0  0  0
    6.8178   -5.0290    1.1848 H   0  0  0  0  0  0  0  0  0  0  0  0
    7.0719   -5.6264   -0.4555 H   0  0  0  0  0  0  0  0  0  0  0  0
    5.0179   -1.2622    2.3517 H   0  0  0  0  0  0  0  0  0  0  0  0
    3.7510   -0.0583    2.0759 H   0  0  0  0  0  0  0  0  0  0  0  0
    2.1180   -1.0736    0.0935 H   0  0  0  0  0  0  0  0  0  0  0  0
    1.5642   -0.7774    1.7476 H   0  0  0  0  0  0  0  0  0  0  0  0
    2.3912   -3.5695    2.7401 H   0  0  0  0  0  0  0  0  0  0  0  0
    4.0663   -3.1364    3.1463 H   0  0  0  0  0  0  0  0  0  0  0  0
   -2.4602   -8.8483    1.3017 H   0  0  0  0  0  0  0  0  0  0  0  0
   -3.4948   -7.4616    1.6469 H   0  0  0  0  0  0  0  0  0  0  0  0
   -3.5881   -7.0062   -0.8541 H   0  0  0  0  0  0  0  0  0  0  0  0
   -2.5368   -8.3970   -1.1001 H   0  0  0  0  0  0  0  0  0  0  0  0
    5.4909   -3.8597   -1.2014 H   0  0  0  0  0  0  0  0  0  0  0  0
    3.5872   -2.7334    0.9171 H   0  0  0  0  0  0  0  0  0  0  0  0
  1  3  1  0  0  0  0
  1  4  2  0  0  0  0
  2  5  1  0  0  0  0
  2  6  2  0  0  0  0
  3  7  2  0  0  0  0
  4  8  1  0  0  0  0
  5  9  2  0  0  0  0
  6 12  1  0  0  0  0
  7 14  1  0  0  0  0
  8 14  2  0  0  0  0
  9 15  1  0  0  0  0
 10 11  2  0  0  0  0
 10 16  1  0  0  0  0
 11 17  1  0  0  0  0
 12 15  2  0  0  0  0
 12 21  1  0  0  0  0
 13 16  2  0  0  0  0
 13 18  1  0  0  0  0
 13 22  1  0  0  0  0
 14 26  1  0  0  0  0
 15 27  1  0  0  0  0
 16 28  1  0  0  0  0
 17 18  2  0  0  0  0
 17 40  1  0  0  0  0
 18 39  1  0  0  0  0
 19 20  2  0  0  0  0
 20 29  1  0  0  0  0
 21 32  1  0  0  0  0
 21 36  2  0  0  0  0
 22 34  1  0  0  0  0
 22 37  2  0  0  0  0
 23 30  1  0  0  0  0
 23 35  1  0  0  0  0
 23 38  2  0  0  0  0
 24 25  1  0  0  0  0
 24 39  1  0  0  0  0
 25 31  1  0  0  0  0
 25 40  1  0  0  0  0
 26 32  1  0  0  0  0
 27 33  1  0  0  0  0
 28 33  1  0  0  0  0
 29 33  1  0  0  0  0
 30 31  1  0  0  0  0
  1 41  1  0  0  0  0
  2 42  1  0  0  0  0
  3 43  1  0  0  0  0
  4 44  1  0  0  0  0
  5 45  1  0  0  0  0
  6 46  1  0  0  0  0
  7 47  1  0  0  0  0
  8 48  1  0  0  0  0
  9 49  1  0  0  0  0
 10 50  1  0  0  0  0
 11 51  1  0  0  0  0
 19 52  1  0  0  0  0
 19 53  1  0  0  0  0
 20 54  1  0  0  0  0
 24 55  1  0  0  0  0
 24 56  1  0  0  0  0
 25 57  1  0  0  0  0
 26 58  1  0  0  0  0
 26 59  1  0  0  0  0
 27 60  1  0  0  0  0
 27 61  1  0  0  0  0
 28 62  1  0  0  0  0
 28 63  1  0  0  0  0
 29 64  1  0  0  0  0
 29 65  1  0  0  0  0
 30 66  1  0  0  0  0
 30 67  1  0  0  0  0
 31 68  1  0  0  0  0
 31 69  1  0  0  0  0
 32 70  1  0  0  0  0
 33 71  1  0  0  0  0
M  CHG  3  33   1  34  -1  35  -1
M  END
$$$$
