AVX38786_2
  -OEChem-04011315013D

 71 74  0     1  0  0  0  0  0999 V2000
    1.7803   -2.2259   -7.7617 C   0  0  0  0  0  0  0  0  0  0  0  0
    0.8617   -1.1825   -7.8750 C   0  0  0  0  0  0  0  0  0  0  0  0
    2.1430   -2.7022   -6.5018 C   0  0  0  0  0  0  0  0  0  0  0  0
    0.3058   -0.6151   -6.7283 C   0  0  0  0  0  0  0  0  0  0  0  0
   -1.9374   -3.2535   -1.4471 C   0  0  0  0  0  0  0  0  0  0  0  0
    3.3343   -0.3980   -0.7655 C   0  0  0  0  0  0  0  0  0  0  0  0
    2.0291   -2.3578   -0.2243 C   0  0  0  0  0  0  0  0  0  0  0  0
   -2.8352   -4.1153   -0.8166 C   0  0  0  0  0  0  0  0  0  0  0  0
    2.7405    0.2898    0.2927 C   0  0  0  0  0  0  0  0  0  0  0  0
    1.4353   -1.6700    0.8340 C   0  0  0  0  0  0  0  0  0  0  0  0
    1.5872   -2.1348   -5.3551 C   0  0  0  0  0  0  0  0  0  0  0  0
   -3.3700   -1.3747   -0.9332 C   0  0  0  0  0  0  0  0  0  0  0  0
    2.9786   -1.7218   -1.0241 C   0  0  0  0  0  0  0  0  0  0  0  0
    0.6685   -1.0912   -5.4684 C   0  0  0  0  0  0  0  0  0  0  0  0
   -2.2019   -1.8844   -1.5005 C   0  0  0  0  0  0  0  0  0  0  0  0
   -3.9966   -3.6042   -0.2368 C   0  0  0  0  0  0  0  0  0  0  0  0
   -4.2746   -2.2377   -0.3140 C   0  0  0  0  0  0  0  0  0  0  0  0
    1.7910   -0.3462    1.0925 C   0  0  0  0  0  0  0  0  0  0  0  0
    1.9840   -2.6506   -4.0520 C   0  0  0  0  0  0  0  0  0  0  0  0
   -3.6508    0.0741   -1.0001 C   0  0  0  0  0  0  0  0  0  0  0  0
   -5.4403   -5.8559    3.5966 C   0  0  0  0  0  0  0  0  0  0  0  0
   -6.4067   -2.6679    0.4990 C   0  0  0  0  0  0  0  0  0  0  0  0
   -5.7804   -3.8438    1.2368 C   0  0  1  0  0  0  0  0  0  0  0  0
   -2.2816   -1.3075   -4.4044 C   0  0  0  0  0  0  0  0  0  0  0  0
    0.2498   -0.3854    2.9033 C   0  0  0  0  0  0  0  0  0  0  0  0
    3.6181   -2.4624   -2.1627 C   0  0  0  0  0  0  0  0  0  0  0  0
    0.0557   -0.4623   -4.2519 C   0  0  0  0  0  0  0  0  0  0  0  0
   -1.2157   -0.9880   -2.1764 C   0  0  0  0  0  0  0  0  0  0  0  0
   -6.2072   -6.0890    2.2896 C   0  0  0  0  0  0  0  0  0  0  0  0
   -6.8300   -4.8717    1.6333 C   0  0  0  0  0  0  0  0  0  0  0  0
    3.0893   -2.0482   -3.4424 N   0  0  0  0  0  0  0  0  0  0  0  0
   -1.0008   -1.3248   -3.6097 N   0  3  1  0  0  0  0  0  0  0  0  0
   -3.2266    0.8266   -0.0483 O   0  5  0  0  0  0  0  0  0  0  0  0
   -4.4809   -6.6401    3.8334 O   0  5  0  0  0  0  0  0  0  0  0  0
    1.3662   -3.5970   -3.5354 O   0  0  0  0  0  0  0  0  0  0  0  0
   -4.3087    0.5266   -2.0072 O   0  0  0  0  0  0  0  0  0  0  0  0
   -5.8654   -4.8801    4.2801 O   0  0  0  0  0  0  0  0  0  0  0  0
   -5.4125   -1.6806    0.2069 O   0  0  0  0  0  0  0  0  0  0  0  0
   -4.8286   -4.4969    0.3860 O   0  0  0  0  0  0  0  0  0  0  0  0
    1.2126    0.3247    2.1259 O   0  0  0  0  0  0  0  0  0  0  0  0
    2.2134   -2.6683   -8.6543 H   0  0  0  0  0  0  0  0  0  0  0  0
    0.5798   -0.8119   -8.8563 H   0  0  0  0  0  0  0  0  0  0  0  0
    2.8608   -3.5151   -6.4268 H   0  0  0  0  0  0  0  0  0  0  0  0
   -0.4094    0.1972   -6.8277 H   0  0  0  0  0  0  0  0  0  0  0  0
   -1.0313   -3.6584   -1.8902 H   0  0  0  0  0  0  0  0  0  0  0  0
    4.0730    0.1053   -1.3835 H   0  0  0  0  0  0  0  0  0  0  0  0
    1.7458   -3.3890   -0.4184 H   0  0  0  0  0  0  0  0  0  0  0  0
   -2.6164   -5.1786   -0.7707 H   0  0  0  0  0  0  0  0  0  0  0  0
    3.0220    1.3209    0.4893 H   0  0  0  0  0  0  0  0  0  0  0  0
    0.6968   -2.1710    1.4535 H   0  0  0  0  0  0  0  0  0  0  0  0
   -6.8739   -2.9784   -0.4443 H   0  0  0  0  0  0  0  0  0  0  0  0
   -7.1736   -2.1876    1.1161 H   0  0  0  0  0  0  0  0  0  0  0  0
   -5.2519   -3.5000    2.1364 H   0  0  0  0  0  0  0  0  0  0  0  0
   -2.6787   -0.2912   -4.3757 H   0  0  0  0  0  0  0  0  0  0  0  0
   -2.0446   -1.6077   -5.4268 H   0  0  0  0  0  0  0  0  0  0  0  0
   -2.9732   -2.0122   -3.9387 H   0  0  0  0  0  0  0  0  0  0  0  0
   -0.1329    0.2650    3.6936 H   0  0  0  0  0  0  0  0  0  0  0  0
    0.7155   -1.2723    3.3402 H   0  0  0  0  0  0  0  0  0  0  0  0
   -0.5748   -0.6912    2.2550 H   0  0  0  0  0  0  0  0  0  0  0  0
    4.7004   -2.2930   -2.1742 H   0  0  0  0  0  0  0  0  0  0  0  0
    3.4589   -3.5418   -2.0683 H   0  0  0  0  0  0  0  0  0  0  0  0
    0.8117   -0.2666   -3.4839 H   0  0  0  0  0  0  0  0  0  0  0  0
   -0.4238    0.4911   -4.4987 H   0  0  0  0  0  0  0  0  0  0  0  0
   -1.5407    0.0599   -2.1496 H   0  0  0  0  0  0  0  0  0  0  0  0
   -0.2308   -1.0390   -1.6948 H   0  0  0  0  0  0  0  0  0  0  0  0
   -7.0173   -6.7882    2.5321 H   0  0  0  0  0  0  0  0  0  0  0  0
   -5.5428   -6.6005    1.5819 H   0  0  0  0  0  0  0  0  0  0  0  0
   -7.5541   -4.3857    2.2850 H   0  0  0  0  0  0  0  0  0  0  0  0
   -7.3479   -5.1694    0.7219 H   0  0  0  0  0  0  0  0  0  0  0  0
    3.5953   -1.3211   -3.9374 H   0  0  0  0  0  0  0  0  0  0  0  0
   -0.6472   -2.2946   -3.6529 H   0  0  0  0  0  0  0  0  0  0  0  0
  1  2  1  0  0  0  0
  1  3  2  0  0  0  0
  2  4  2  0  0  0  0
  3 11  1  0  0  0  0
  4 14  1  0  0  0  0
  5  8  2  0  0  0  0
  5 15  1  0  0  0  0
  6  9  2  0  0  0  0
  6 13  1  0  0  0  0
  7 10  1  0  0  0  0
  7 13  2  0  0  0  0
  8 16  1  0  0  0  0
  9 18  1  0  0  0  0
 10 18  2  0  0  0  0
 11 14  2  0  0  0  0
 11 19  1  0  0  0  0
 12 15  2  0  0  0  0
 12 17  1  0  0  0  0
 12 20  1  0  0  0  0
 13 26  1  0  0  0  0
 14 27  1  0  0  0  0
 15 28  1  0  0  0  0
 16 17  2  0  0  0  0
 16 39  1  0  0  0  0
 17 38  1  0  0  0  0
 18 40  1  0  0  0  0
 19 31  1  0  0  0  0
 19 35  2  0  0  0  0
 20 33  1  0  0  0  0
 20 36  2  0  0  0  0
 21 29  1  0  0  0  0
 21 34  1  0  0  0  0
 21 37  2  0  0  0  0
 22 23  1  0  0  0  0
 22 38  1  0  0  0  0
 23 30  1  0  0  0  0
 23 39  1  0  0  0  0
 24 32  1  0  0  0  0
 25 40  1  0  0  0  0
 26 31  1  0  0  0  0
 27 32  1  0  0  0  0
 28 32  1  0  0  0  0
 29 30  1  0  0  0  0
  1 41  1  0  0  0  0
  2 42  1  0  0  0  0
  3 43  1  0  0  0  0
  4 44  1  0  0  0  0
  5 45  1  0  0  0  0
  6 46  1  0  0  0  0
  7 47  1  0  0  0  0
  8 48  1  0  0  0  0
  9 49  1  0  0  0  0
 10 50  1  0  0  0  0
 22 51  1  0  0  0  0
 22 52  1  0  0  0  0
 23 53  1  0  0  0  0
 24 54  1  0  0  0  0
 24 55  1  0  0  0  0
 24 56  1  0  0  0  0
 25 57  1  0  0  0  0
 25 58  1  0  0  0  0
 25 59  1  0  0  0  0
 26 60  1  0  0  0  0
 26 61  1  0  0  0  0
 27 62  1  0  0  0  0
 27 63  1  0  0  0  0
 28 64  1  0  0  0  0
 28 65  1  0  0  0  0
 29 66  1  0  0  0  0
 29 67  1  0  0  0  0
 30 68  1  0  0  0  0
 30 69  1  0  0  0  0
 31 70  1  0  0  0  0
 32 71  1  0  0  0  0
M  CHG  3  32   1  33  -1  34  -1
M  END
$$$$
