AVX38779_1
  -OEChem-04011314593D

 70 72  0     1  0  0  0  0  0999 V2000
    5.9311    0.0388   -2.1815 C   0  0  0  0  0  0  0  0  0  0  0  0
    4.9945    0.8844   -1.5871 C   0  0  0  0  0  0  0  0  0  0  0  0
    6.3261   -1.1308   -1.5320 C   0  0  0  0  0  0  0  0  0  0  0  0
    4.4530    0.5606   -0.3431 C   0  0  0  0  0  0  0  0  0  0  0  0
   -0.1342   -2.7316    1.8471 C   0  0  0  0  0  0  0  0  0  0  0  0
   -1.0876   -3.7451    1.7464 C   0  0  0  0  0  0  0  0  0  0  0  0
    5.7845   -1.4546   -0.2880 C   0  0  0  0  0  0  0  0  0  0  0  0
    0.9782   -3.5729   -0.1279 C   0  0  0  0  0  0  0  0  0  0  0  0
    4.8480   -0.6090    0.3065 C   0  0  0  0  0  0  0  0  0  0  0  0
    0.9003   -2.6490    0.9145 C   0  0  0  0  0  0  0  0  0  0  0  0
   -1.0023   -4.6776    0.7122 C   0  0  0  0  0  0  0  0  0  0  0  0
    0.0173   -4.5783   -0.2372 C   0  0  0  0  0  0  0  0  0  0  0  0
    3.2005   -1.5819    5.1214 C   0  0  0  0  0  0  0  0  0  0  0  0
    2.5507   -1.8408    3.9814 C   0  0  0  0  0  0  0  0  0  0  0  0
    6.2150   -2.6816    0.3686 C   0  0  0  0  0  0  0  0  0  0  0  0
    2.0697   -3.4764   -1.1187 C   0  0  0  0  0  0  0  0  0  0  0  0
   -4.4983   -9.1761    0.8235 C   0  0  0  0  0  0  0  0  0  0  0  0
   -1.0650   -6.1927   -1.5070 C   0  0  0  0  0  0  0  0  0  0  0  0
   -1.5828   -6.7443   -0.1852 C   0  0  2  0  0  0  0  0  0  0  0  0
    7.8255   -5.6687   -1.7857 C   0  0  0  0  0  0  0  0  0  0  0  0
    5.1822   -5.7142    1.0642 C   0  0  0  0  0  0  0  0  0  0  0  0
    4.2499   -0.9325    1.6439 C   0  0  0  0  0  0  0  0  0  0  0  0
    1.9102   -1.5568    1.0567 C   0  0  0  0  0  0  0  0  0  0  0  0
    3.0773   -2.7334    2.9064 C   0  0  0  0  0  0  0  0  0  0  0  0
   -3.2848   -8.2425    0.9052 C   0  0  0  0  0  0  0  0  0  0  0  0
   -2.8130   -7.6156   -0.3927 C   0  0  0  0  0  0  0  0  0  0  0  0
    6.6815   -6.1621   -0.9092 C   0  0  0  0  0  0  0  0  0  0  0  0
    6.3306   -5.1792    0.2152 C   0  0  1  0  0  0  0  0  0  0  0  0
    5.9828   -3.8800   -0.3140 N   0  0  0  0  0  0  0  0  0  0  0  0
    3.2198   -2.0313    1.5800 N   0  3  2  0  0  0  0  0  0  0  0  0
    1.8813   -2.7660   -2.1731 O   0  5  0  0  0  0  0  0  0  0  0  0
   -4.8850   -9.6921    1.9078 O   0  5  0  0  0  0  0  0  0  0  0  0
    6.7430   -2.6414    1.4928 O   0  0  0  0  0  0  0  0  0  0  0  0
    3.1659   -4.1068   -0.8885 O   0  0  0  0  0  0  0  0  0  0  0  0
   -4.9764   -9.3039   -0.3405 O   0  0  0  0  0  0  0  0  0  0  0  0
    0.1349   -5.4426   -1.2936 O   0  0  0  0  0  0  0  0  0  0  0  0
   -1.9553   -5.6612    0.6781 O   0  0  0  0  0  0  0  0  0  0  0  0
    6.3530    0.2904   -3.1504 H   0  0  0  0  0  0  0  0  0  0  0  0
    4.6876    1.7951   -2.0932 H   0  0  0  0  0  0  0  0  0  0  0  0
    7.0575   -1.7809   -2.0052 H   0  0  0  0  0  0  0  0  0  0  0  0
    3.7236    1.2261    0.1111 H   0  0  0  0  0  0  0  0  0  0  0  0
   -0.2036   -2.0133    2.6598 H   0  0  0  0  0  0  0  0  0  0  0  0
   -1.8833   -3.8086    2.4835 H   0  0  0  0  0  0  0  0  0  0  0  0
    2.7625   -0.9274    5.8671 H   0  0  0  0  0  0  0  0  0  0  0  0
    4.1722   -2.0147    5.3315 H   0  0  0  0  0  0  0  0  0  0  0  0
    1.5766   -1.3856    3.8223 H   0  0  0  0  0  0  0  0  0  0  0  0
   -0.8234   -7.0066   -2.1988 H   0  0  0  0  0  0  0  0  0  0  0  0
   -1.8000   -5.5393   -1.9944 H   0  0  0  0  0  0  0  0  0  0  0  0
   -0.8046   -7.3303    0.3225 H   0  0  0  0  0  0  0  0  0  0  0  0
    8.7330   -5.4954   -1.1992 H   0  0  0  0  0  0  0  0  0  0  0  0
    8.0599   -6.4137   -2.5528 H   0  0  0  0  0  0  0  0  0  0  0  0
    7.5575   -4.7354   -2.2911 H   0  0  0  0  0  0  0  0  0  0  0  0
    4.2867   -5.8761    0.4556 H   0  0  0  0  0  0  0  0  0  0  0  0
    5.4493   -6.6641    1.5408 H   0  0  0  0  0  0  0  0  0  0  0  0
    4.9260   -5.0072    1.8611 H   0  0  0  0  0  0  0  0  0  0  0  0
    5.0179   -1.2622    2.3517 H   0  0  0  0  0  0  0  0  0  0  0  0
    3.7510   -0.0583    2.0759 H   0  0  0  0  0  0  0  0  0  0  0  0
    2.1180   -1.0736    0.0935 H   0  0  0  0  0  0  0  0  0  0  0  0
    1.5642   -0.7774    1.7476 H   0  0  0  0  0  0  0  0  0  0  0  0
    2.3912   -3.5695    2.7401 H   0  0  0  0  0  0  0  0  0  0  0  0
    4.0663   -3.1364    3.1463 H   0  0  0  0  0  0  0  0  0  0  0  0
   -2.4602   -8.8483    1.3017 H   0  0  0  0  0  0  0  0  0  0  0  0
   -3.4948   -7.4616    1.6468 H   0  0  0  0  0  0  0  0  0  0  0  0
   -3.5881   -7.0062   -0.8541 H   0  0  0  0  0  0  0  0  0  0  0  0
   -2.5368   -8.3970   -1.1001 H   0  0  0  0  0  0  0  0  0  0  0  0
    5.8022   -6.3184   -1.5459 H   0  0  0  0  0  0  0  0  0  0  0  0
    6.9520   -7.1387   -0.4888 H   0  0  0  0  0  0  0  0  0  0  0  0
    7.2056   -5.0307    0.8585 H   0  0  0  0  0  0  0  0  0  0  0  0
    5.4909   -3.8597   -1.2014 H   0  0  0  0  0  0  0  0  0  0  0  0
    3.5872   -2.7334    0.9171 H   0  0  0  0  0  0  0  0  0  0  0  0
  1  2  1  0  0  0  0
  1  3  2  0  0  0  0
  2  4  2  0  0  0  0
  3  7  1  0  0  0  0
  4  9  1  0  0  0  0
  5  6  2  0  0  0  0
  5 10  1  0  0  0  0
  6 11  1  0  0  0  0
  7  9  2  0  0  0  0
  7 15  1  0  0  0  0
  8 10  2  0  0  0  0
  8 12  1  0  0  0  0
  8 16  1  0  0  0  0
  9 22  1  0  0  0  0
 10 23  1  0  0  0  0
 11 12  2  0  0  0  0
 11 37  1  0  0  0  0
 12 36  1  0  0  0  0
 13 14  2  0  0  0  0
 14 24  1  0  0  0  0
 15 29  1  0  0  0  0
 15 33  2  0  0  0  0
 16 31  1  0  0  0  0
 16 34  2  0  0  0  0
 17 25  1  0  0  0  0
 17 32  1  0  0  0  0
 17 35  2  0  0  0  0
 18 19  1  0  0  0  0
 18 36  1  0  0  0  0
 19 26  1  0  0  0  0
 19 37  1  0  0  0  0
 20 27  1  0  0  0  0
 21 28  1  0  0  0  0
 22 30  1  0  0  0  0
 23 30  1  0  0  0  0
 24 30  1  0  0  0  0
 25 26  1  0  0  0  0
 27 28  1  0  0  0  0
 28 29  1  0  0  0  0
  1 38  1  0  0  0  0
  2 39  1  0  0  0  0
  3 40  1  0  0  0  0
  4 41  1  0  0  0  0
  5 42  1  0  0  0  0
  6 43  1  0  0  0  0
 13 44  1  0  0  0  0
 13 45  1  0  0  0  0
 14 46  1  0  0  0  0
 18 47  1  0  0  0  0
 18 48  1  0  0  0  0
 19 49  1  0  0  0  0
 20 50  1  0  0  0  0
 20 51  1  0  0  0  0
 20 52  1  0  0  0  0
 21 53  1  0  0  0  0
 21 54  1  0  0  0  0
 21 55  1  0  0  0  0
 22 56  1  0  0  0  0
 22 57  1  0  0  0  0
 23 58  1  0  0  0  0
 23 59  1  0  0  0  0
 24 60  1  0  0  0  0
 24 61  1  0  0  0  0
 25 62  1  0  0  0  0
 25 63  1  0  0  0  0
 26 64  1  0  0  0  0
 26 65  1  0  0  0  0
 27 66  1  0  0  0  0
 27 67  1  0  0  0  0
 28 68  1  0  0  0  0
 29 69  1  0  0  0  0
 30 70  1  0  0  0  0
M  CHG  3  30   1  31  -1  32  -1
M  END
$$$$
