AVX38672_0
  -OEChem-04011314563D

 58 60  0     1  0  0  0  0  0999 V2000
    3.8681    1.3155    2.0065 C   0  0  0  0  0  0  0  0  0  0  0  0
    2.5716    1.1736    2.5010 C   0  0  0  0  0  0  0  0  0  0  0  0
    4.1872    0.8327    0.7373 C   0  0  0  0  0  0  0  0  0  0  0  0
    1.5942    0.5488    1.7264 C   0  0  0  0  0  0  0  0  0  0  0  0
    3.2098    0.2080   -0.0373 C   0  0  0  0  0  0  0  0  0  0  0  0
   -1.7430    0.5617   -5.4313 C   0  0  0  0  0  0  0  0  0  0  0  0
   -2.5985    0.0461   -6.4079 C   0  0  0  0  0  0  0  0  0  0  0  0
   -0.2687    1.4716   -7.1421 C   0  0  0  0  0  0  0  0  0  0  0  0
    1.9133    0.0660    0.4572 C   0  0  0  0  0  0  0  0  0  0  0  0
   -0.5848    1.2704   -5.7963 C   0  0  0  0  0  0  0  0  0  0  0  0
   -2.2635    0.2587   -7.7294 C   0  0  0  0  0  0  0  0  0  0  0  0
   -1.1299    0.9524   -8.0867 C   0  0  0  0  0  0  0  0  0  0  0  0
    0.9369    2.2106   -7.5501 C   0  0  0  0  0  0  0  0  0  0  0  0
    0.8107   -2.1139   -0.1327 C   0  0  0  0  0  0  0  0  0  0  0  0
    0.5136    0.6885   -2.4731 C   0  0  0  0  0  0  0  0  0  0  0  0
   -2.1571    0.3378   -9.8891 C   0  0  0  0  0  0  0  0  0  0  0  0
   -1.3033   -3.8062    2.4801 C   0  0  0  0  0  0  0  0  0  0  0  0
   -0.7676   -4.6641    0.1855 C   0  0  0  0  0  0  0  0  0  0  0  0
    1.0630   -4.3588    1.8719 C   0  0  0  0  0  0  0  0  0  0  0  0
    1.6473   -0.2595   -4.4964 C   0  0  0  0  0  0  0  0  0  0  0  0
    0.3032    1.8051   -4.7101 C   0  0  0  0  0  0  0  0  0  0  0  0
    0.8551   -0.6111   -0.3823 C   0  0  2  0  0  0  0  0  0  0  0  0
   -0.2672   -3.8034    1.3502 C   0  0  0  0  0  0  0  0  0  0  0  0
   -0.0702   -2.4489    0.8861 N   0  0  0  0  0  0  0  0  0  0  0  0
    1.0674   -0.3942   -1.7956 N   0  0  0  0  0  0  0  0  0  0  0  0
    0.8120    0.7420   -3.8470 N   0  0  0  0  0  0  0  0  0  0  0  0
    0.8559    3.4852   -7.7165 O   0  5  0  0  0  0  0  0  0  0  0  0
    2.0333    1.5585   -7.7277 O   0  0  0  0  0  0  0  0  0  0  0  0
    1.5135   -2.9129   -0.7486 O   0  0  0  0  0  0  0  0  0  0  0  0
   -0.1919    1.5267   -1.9035 O   0  0  0  0  0  0  0  0  0  0  0  0
   -2.9721   -0.1657   -8.8109 O   0  0  0  0  0  0  0  0  0  0  0  0
   -0.9867    1.0489   -9.4365 O   0  0  0  0  0  0  0  0  0  0  0  0
    4.6287    1.8032    2.6092 H   0  0  0  0  0  0  0  0  0  0  0  0
    2.3227    1.5504    3.4888 H   0  0  0  0  0  0  0  0  0  0  0  0
    5.1962    0.9440    0.3516 H   0  0  0  0  0  0  0  0  0  0  0  0
    0.5867    0.4425    2.1200 H   0  0  0  0  0  0  0  0  0  0  0  0
    3.4676   -0.1652   -1.0249 H   0  0  0  0  0  0  0  0  0  0  0  0
   -1.9821    0.4098   -4.3814 H   0  0  0  0  0  0  0  0  0  0  0  0
   -3.4925   -0.5008   -6.1308 H   0  0  0  0  0  0  0  0  0  0  0  0
   -1.8363   -0.5065  -10.5102 H   0  0  0  0  0  0  0  0  0  0  0  0
   -2.7641    1.0147  -10.5013 H   0  0  0  0  0  0  0  0  0  0  0  0
   -0.9677   -3.1960    3.3269 H   0  0  0  0  0  0  0  0  0  0  0  0
   -2.2658   -3.4087    2.1397 H   0  0  0  0  0  0  0  0  0  0  0  0
   -1.4719   -4.8210    2.8589 H   0  0  0  0  0  0  0  0  0  0  0  0
   -0.0422   -4.6775   -0.6363 H   0  0  0  0  0  0  0  0  0  0  0  0
   -1.7082   -4.2730   -0.2195 H   0  0  0  0  0  0  0  0  0  0  0  0
   -0.9403   -5.6993    0.4998 H   0  0  0  0  0  0  0  0  0  0  0  0
    1.8238   -4.3683    1.0827 H   0  0  0  0  0  0  0  0  0  0  0  0
    1.4472   -3.7584    2.7039 H   0  0  0  0  0  0  0  0  0  0  0  0
    0.9501   -5.3904    2.2252 H   0  0  0  0  0  0  0  0  0  0  0  0
    1.0292   -1.0815   -4.8669 H   0  0  0  0  0  0  0  0  0  0  0  0
    2.3774   -0.6599   -3.7878 H   0  0  0  0  0  0  0  0  0  0  0  0
    2.1840    0.1846   -5.3391 H   0  0  0  0  0  0  0  0  0  0  0  0
    1.1627    2.3321   -5.1385 H   0  0  0  0  0  0  0  0  0  0  0  0
   -0.2350    2.5200   -4.0789 H   0  0  0  0  0  0  0  0  0  0  0  0
   -0.1335   -0.1867   -0.1694 H   0  0  0  0  0  0  0  0  0  0  0  0
   -0.6092   -1.7168    1.3390 H   0  0  0  0  0  0  0  0  0  0  0  0
    1.6389   -1.0530   -2.3109 H   0  0  0  0  0  0  0  0  0  0  0  0
  1  2  1  0  0  0  0
  1  3  2  0  0  0  0
  2  4  2  0  0  0  0
  3  5  1  0  0  0  0
  4  9  1  0  0  0  0
  5  9  2  0  0  0  0
  6  7  2  0  0  0  0
  6 10  1  0  0  0  0
  7 11  1  0  0  0  0
  8 10  2  0  0  0  0
  8 12  1  0  0  0  0
  8 13  1  0  0  0  0
  9 22  1  0  0  0  0
 10 21  1  0  0  0  0
 11 12  2  0  0  0  0
 11 31  1  0  0  0  0
 12 32  1  0  0  0  0
 13 27  1  0  0  0  0
 13 28  2  0  0  0  0
 14 22  1  0  0  0  0
 14 24  1  0  0  0  0
 14 29  2  0  0  0  0
 15 25  1  0  0  0  0
 15 26  1  0  0  0  0
 15 30  2  0  0  0  0
 16 31  1  0  0  0  0
 16 32  1  0  0  0  0
 17 23  1  0  0  0  0
 18 23  1  0  0  0  0
 19 23  1  0  0  0  0
 20 26  1  0  0  0  0
 21 26  1  0  0  0  0
 22 25  1  0  0  0  0
 23 24  1  0  0  0  0
  1 33  1  0  0  0  0
  2 34  1  0  0  0  0
  3 35  1  0  0  0  0
  4 36  1  0  0  0  0
  5 37  1  0  0  0  0
  6 38  1  0  0  0  0
  7 39  1  0  0  0  0
 16 40  1  0  0  0  0
 16 41  1  0  0  0  0
 17 42  1  0  0  0  0
 17 43  1  0  0  0  0
 17 44  1  0  0  0  0
 18 45  1  0  0  0  0
 18 46  1  0  0  0  0
 18 47  1  0  0  0  0
 19 48  1  0  0  0  0
 19 49  1  0  0  0  0
 19 50  1  0  0  0  0
 20 51  1  0  0  0  0
 20 52  1  0  0  0  0
 20 53  1  0  0  0  0
 21 54  1  0  0  0  0
 21 55  1  0  0  0  0
 22 56  1  0  0  0  0
 24 57  1  0  0  0  0
 25 58  1  0  0  0  0
M  CHG  1  27  -1
M  END
$$$$
