AVX38786_1
  -OEChem-04011315013D

 71 74  0     1  0  0  0  0  0999 V2000
    1.1315   -4.9555    5.1679 C   0  0  0  0  0  0  0  0  0  0  0  0
    0.5851   -5.0961    3.8923 C   0  0  0  0  0  0  0  0  0  0  0  0
    2.3769   -4.3486    5.3302 C   0  0  0  0  0  0  0  0  0  0  0  0
    1.2841   -4.6299    2.7789 C   0  0  0  0  0  0  0  0  0  0  0  0
    1.2325    0.1703    2.7127 C   0  0  0  0  0  0  0  0  0  0  0  0
    7.0078   -0.2753    3.7046 C   0  0  0  0  0  0  0  0  0  0  0  0
    4.8914    0.7283    4.2969 C   0  0  0  0  0  0  0  0  0  0  0  0
    0.9418    1.4878    3.0676 C   0  0  0  0  0  0  0  0  0  0  0  0
    7.2209    0.7305    2.7619 C   0  0  0  0  0  0  0  0  0  0  0  0
    5.1045    1.7341    3.3542 C   0  0  0  0  0  0  0  0  0  0  0  0
    3.0759   -3.8823    4.2169 C   0  0  0  0  0  0  0  0  0  0  0  0
    1.7187    0.8794    0.4529 C   0  0  0  0  0  0  0  0  0  0  0  0
    5.8430   -0.2764    4.4721 C   0  0  0  0  0  0  0  0  0  0  0  0
    2.5296   -4.0229    2.9412 C   0  0  0  0  0  0  0  0  0  0  0  0
    1.6150   -0.1343    1.4059 C   0  0  0  0  0  0  0  0  0  0  0  0
    1.0318    2.4998    2.1115 C   0  0  0  0  0  0  0  0  0  0  0  0
    1.4414    2.1990    0.8106 C   0  0  0  0  0  0  0  0  0  0  0  0
    6.2693    1.7352    2.5867 C   0  0  0  0  0  0  0  0  0  0  0  0
    4.3747   -3.2531    4.4147 C   0  0  0  0  0  0  0  0  0  0  0  0
    2.1330    0.5542   -0.9273 C   0  0  0  0  0  0  0  0  0  0  0  0
   -0.8752    7.6936    3.4746 C   0  0  0  0  0  0  0  0  0  0  0  0
    1.6158    4.4745    0.3840 C   0  0  0  0  0  0  0  0  0  0  0  0
    0.4986    4.6512    1.4040 C   0  0  2  0  0  0  0  0  0  0  0  0
    4.3854   -1.5239    0.7699 C   0  0  0  0  0  0  0  0  0  0  0  0
    5.4644    3.7132    1.5401 C   0  0  0  0  0  0  0  0  0  0  0  0
    5.6137   -1.3585    5.4872 C   0  0  0  0  0  0  0  0  0  0  0  0
    3.2598   -3.5311    1.7264 C   0  0  0  0  0  0  0  0  0  0  0  0
    1.9102   -1.5568    1.0567 C   0  0  0  0  0  0  0  0  0  0  0  0
   -0.7035    6.2860    2.8914 C   0  0  0  0  0  0  0  0  0  0  0  0
    0.4600    6.0741    1.9420 C   0  0  0  0  0  0  0  0  0  0  0  0
    4.4077   -2.1075    5.2164 N   0  0  0  0  0  0  0  0  0  0  0  0
    3.2198   -2.0313    1.5800 N   0  3  2  0  0  0  0  0  0  0  0  0
    3.3855    0.5784   -1.2145 O   0  5  0  0  0  0  0  0  0  0  0  0
   -1.8445    7.8609    4.2645 O   0  5  0  0  0  0  0  0  0  0  0  0
    5.3891   -3.7192    3.8688 O   0  0  0  0  0  0  0  0  0  0  0  0
    1.2251    0.2598   -1.7880 O   0  0  0  0  0  0  0  0  0  0  0  0
    0.0007    8.5228    3.0936 O   0  0  0  0  0  0  0  0  0  0  0  0
    1.5811    3.1526   -0.1631 O   0  0  0  0  0  0  0  0  0  0  0  0
    0.7140    3.7699    2.5149 O   0  0  0  0  0  0  0  0  0  0  0  0
    6.4780    2.7172    1.6677 O   0  0  0  0  0  0  0  0  0  0  0  0
    0.5875   -5.3183    6.0354 H   0  0  0  0  0  0  0  0  0  0  0  0
   -0.3845   -5.5691    3.7665 H   0  0  0  0  0  0  0  0  0  0  0  0
    2.7924   -4.2459    6.3295 H   0  0  0  0  0  0  0  0  0  0  0  0
    0.8492   -4.7440    1.7895 H   0  0  0  0  0  0  0  0  0  0  0  0
    1.1531   -0.6135    3.4616 H   0  0  0  0  0  0  0  0  0  0  0  0
    7.7544   -1.0541    3.8343 H   0  0  0  0  0  0  0  0  0  0  0  0
    3.9808    0.7354    4.8904 H   0  0  0  0  0  0  0  0  0  0  0  0
    0.6339    1.7141    4.0847 H   0  0  0  0  0  0  0  0  0  0  0  0
    8.1305    0.7260    2.1671 H   0  0  0  0  0  0  0  0  0  0  0  0
    4.3597    2.5140    3.2227 H   0  0  0  0  0  0  0  0  0  0  0  0
    1.4958    5.1763   -0.4480 H   0  0  0  0  0  0  0  0  0  0  0  0
    2.6059    4.6399    0.8281 H   0  0  0  0  0  0  0  0  0  0  0  0
   -0.4754    4.4049    0.9596 H   0  0  0  0  0  0  0  0  0  0  0  0
    4.2862   -1.9202   -0.2423 H   0  0  0  0  0  0  0  0  0  0  0  0
    4.3430   -0.4330    0.7704 H   0  0  0  0  0  0  0  0  0  0  0  0
    5.3020   -1.8813    1.2432 H   0  0  0  0  0  0  0  0  0  0  0  0
    5.7564    4.4351    0.7735 H   0  0  0  0  0  0  0  0  0  0  0  0
    5.3270    4.2193    2.4989 H   0  0  0  0  0  0  0  0  0  0  0  0
    4.5283    3.2322    1.2467 H   0  0  0  0  0  0  0  0  0  0  0  0
    6.4529   -2.0626    5.4973 H   0  0  0  0  0  0  0  0  0  0  0  0
    5.5284   -0.9398    6.4955 H   0  0  0  0  0  0  0  0  0  0  0  0
    4.3170   -3.8159    1.7575 H   0  0  0  0  0  0  0  0  0  0  0  0
    2.8287   -3.9482    0.8099 H   0  0  0  0  0  0  0  0  0  0  0  0
    1.1498   -2.2364    1.4622 H   0  0  0  0  0  0  0  0  0  0  0  0
    1.9382   -1.7060   -0.0303 H   0  0  0  0  0  0  0  0  0  0  0  0
   -1.6272    6.0698    2.3400 H   0  0  0  0  0  0  0  0  0  0  0  0
   -0.6494    5.5693    3.7204 H   0  0  0  0  0  0  0  0  0  0  0  0
    1.4159    6.2840    2.4187 H   0  0  0  0  0  0  0  0  0  0  0  0
    0.3612    6.7387    1.0842 H   0  0  0  0  0  0  0  0  0  0  0  0
    3.5396   -1.7339    5.5859 H   0  0  0  0  0  0  0  0  0  0  0  0
    3.3376   -1.6429    2.5301 H   0  0  0  0  0  0  0  0  0  0  0  0
  1  2  1  0  0  0  0
  1  3  2  0  0  0  0
  2  4  2  0  0  0  0
  3 11  1  0  0  0  0
  4 14  1  0  0  0  0
  5  8  2  0  0  0  0
  5 15  1  0  0  0  0
  6  9  2  0  0  0  0
  6 13  1  0  0  0  0
  7 10  1  0  0  0  0
  7 13  2  0  0  0  0
  8 16  1  0  0  0  0
  9 18  1  0  0  0  0
 10 18  2  0  0  0  0
 11 14  2  0  0  0  0
 11 19  1  0  0  0  0
 12 15  2  0  0  0  0
 12 17  1  0  0  0  0
 12 20  1  0  0  0  0
 13 26  1  0  0  0  0
 14 27  1  0  0  0  0
 15 28  1  0  0  0  0
 16 17  2  0  0  0  0
 16 39  1  0  0  0  0
 17 38  1  0  0  0  0
 18 40  1  0  0  0  0
 19 31  1  0  0  0  0
 19 35  2  0  0  0  0
 20 33  1  0  0  0  0
 20 36  2  0  0  0  0
 21 29  1  0  0  0  0
 21 34  1  0  0  0  0
 21 37  2  0  0  0  0
 22 23  1  0  0  0  0
 22 38  1  0  0  0  0
 23 30  1  0  0  0  0
 23 39  1  0  0  0  0
 24 32  1  0  0  0  0
 25 40  1  0  0  0  0
 26 31  1  0  0  0  0
 27 32  1  0  0  0  0
 28 32  1  0  0  0  0
 29 30  1  0  0  0  0
  1 41  1  0  0  0  0
  2 42  1  0  0  0  0
  3 43  1  0  0  0  0
  4 44  1  0  0  0  0
  5 45  1  0  0  0  0
  6 46  1  0  0  0  0
  7 47  1  0  0  0  0
  8 48  1  0  0  0  0
  9 49  1  0  0  0  0
 10 50  1  0  0  0  0
 22 51  1  0  0  0  0
 22 52  1  0  0  0  0
 23 53  1  0  0  0  0
 24 54  1  0  0  0  0
 24 55  1  0  0  0  0
 24 56  1  0  0  0  0
 25 57  1  0  0  0  0
 25 58  1  0  0  0  0
 25 59  1  0  0  0  0
 26 60  1  0  0  0  0
 26 61  1  0  0  0  0
 27 62  1  0  0  0  0
 27 63  1  0  0  0  0
 28 64  1  0  0  0  0
 28 65  1  0  0  0  0
 29 66  1  0  0  0  0
 29 67  1  0  0  0  0
 30 68  1  0  0  0  0
 30 69  1  0  0  0  0
 31 70  1  0  0  0  0
 32 71  1  0  0  0  0
M  CHG  3  32   1  33  -1  34  -1
M  END
$$$$
