AVX38719_0
  -OEChem-04011314563D

 35 37  0     0  0  0  0  0  0999 V2000
   -9.3818   -0.4667   -1.6659 C   0  0  0  0  0  0  0  0  0  0  0  0
   -9.0668    0.4869   -0.6979 C   0  0  0  0  0  0  0  0  0  0  0  0
   -8.3740   -1.0133   -2.4604 C   0  0  0  0  0  0  0  0  0  0  0  0
   -0.9828    1.8432   -0.5132 C   0  0  0  0  0  0  0  0  0  0  0  0
   -2.1827    2.4837   -0.8519 C   0  0  0  0  0  0  0  0  0  0  0  0
   -7.7439    0.8939   -0.5244 C   0  0  0  0  0  0  0  0  0  0  0  0
   -7.0512   -0.6063   -2.2870 C   0  0  0  0  0  0  0  0  0  0  0  0
   -0.9455    0.4696   -0.2604 C   0  0  0  0  0  0  0  0  0  0  0  0
   -3.3574    1.7156   -0.9335 C   0  0  0  0  0  0  0  0  0  0  0  0
   -6.7361    0.3473   -1.3190 C   0  0  0  0  0  0  0  0  0  0  0  0
   -2.1012   -0.3134   -0.3361 C   0  0  0  0  0  0  0  0  0  0  0  0
   -4.7209    1.9732   -1.2341 C   0  0  0  0  0  0  0  0  0  0  0  0
   -3.2786    0.3511   -0.6747 C   0  0  0  0  0  0  0  0  0  0  0  0
   -5.3737    0.7659   -1.1396 C   0  0  0  0  0  0  0  0  0  0  0  0
   -2.0790   -1.7563   -0.0739 C   0  0  0  0  0  0  0  0  0  0  0  0
   -6.1867    5.5448   -0.6338 C   0  0  0  0  0  0  0  0  0  0  0  0
   -5.3180    3.2786   -1.5786 C   0  0  0  0  0  0  0  0  0  0  0  0
   -5.5321    4.1872   -0.3578 C   0  0  0  0  0  0  0  0  0  0  0  0
   -0.9592   -2.3181    0.2353 O   0  5  0  0  0  0  0  0  0  0  0  0
   -6.3918    6.2382    0.4045 O   0  5  0  0  0  0  0  0  0  0  0  0
   -3.1797   -2.4242   -0.1599 O   0  0  0  0  0  0  0  0  0  0  0  0
   -6.4420    5.8163   -1.8388 O   0  0  0  0  0  0  0  0  0  0  0  0
   -4.5075   -0.2244   -0.8009 O   0  0  0  0  0  0  0  0  0  0  0  0
  -10.4118   -0.7840   -1.8005 H   0  0  0  0  0  0  0  0  0  0  0  0
   -9.8517    0.9126   -0.0795 H   0  0  0  0  0  0  0  0  0  0  0  0
   -8.6192   -1.7566   -3.2134 H   0  0  0  0  0  0  0  0  0  0  0  0
   -0.0674    2.4258   -0.4462 H   0  0  0  0  0  0  0  0  0  0  0  0
   -2.1948    3.5522   -1.0446 H   0  0  0  0  0  0  0  0  0  0  0  0
   -7.5141    1.6362    0.2362 H   0  0  0  0  0  0  0  0  0  0  0  0
   -6.2772   -1.0411   -2.9149 H   0  0  0  0  0  0  0  0  0  0  0  0
    0.0054    0.0085   -0.0017 H   0  0  0  0  0  0  0  0  0  0  0  0
   -4.6886    3.8163   -2.3126 H   0  0  0  0  0  0  0  0  0  0  0  0
   -6.2885    3.1429   -2.0921 H   0  0  0  0  0  0  0  0  0  0  0  0
   -4.5647    4.3792    0.1241 H   0  0  0  0  0  0  0  0  0  0  0  0
   -6.1551    3.6633    0.3787 H   0  0  0  0  0  0  0  0  0  0  0  0
  1  2  2  0  0  0  0
  1  3  1  0  0  0  0
  2  6  1  0  0  0  0
  3  7  2  0  0  0  0
  4  5  2  0  0  0  0
  4  8  1  0  0  0  0
  5  9  1  0  0  0  0
  6 10  2  0  0  0  0
  7 10  1  0  0  0  0
  8 11  2  0  0  0  0
  9 12  1  0  0  0  0
  9 13  2  0  0  0  0
 10 14  1  0  0  0  0
 11 13  1  0  0  0  0
 11 15  1  0  0  0  0
 12 14  2  0  0  0  0
 12 17  1  0  0  0  0
 13 23  1  0  0  0  0
 14 23  1  0  0  0  0
 15 19  1  0  0  0  0
 15 21  2  0  0  0  0
 16 18  1  0  0  0  0
 16 20  1  0  0  0  0
 16 22  2  0  0  0  0
 17 18  1  0  0  0  0
  1 24  1  0  0  0  0
  2 25  1  0  0  0  0
  3 26  1  0  0  0  0
  4 27  1  0  0  0  0
  5 28  1  0  0  0  0
  6 29  1  0  0  0  0
  7 30  1  0  0  0  0
  8 31  1  0  0  0  0
 17 32  1  0  0  0  0
 17 33  1  0  0  0  0
 18 34  1  0  0  0  0
 18 35  1  0  0  0  0
M  CHG  2  19  -1  20  -1
M  END
$$$$
