AVX38748_0
  -OEChem-04011314573D

 67 70  0     1  0  0  0  0  0999 V2000
    2.0069    1.7310   -0.6805 C   0  0  0  0  0  0  0  0  0  0  0  0
    2.2404    0.4799   -1.2717 C   0  0  0  0  0  0  0  0  0  0  0  0
    0.8190    1.9810    0.0082 C   0  0  0  0  0  0  0  0  0  0  0  0
    1.2891   -0.5394   -1.1834 C   0  0  0  0  0  0  0  0  0  0  0  0
   -2.8127   -3.8482    0.6768 C   0  0  0  0  0  0  0  0  0  0  0  0
   -3.9240   -4.6610    0.4521 C   0  0  0  0  0  0  0  0  0  0  0  0
   -2.1983   -4.0325   -1.6544 C   0  0  0  0  0  0  0  0  0  0  0  0
   -0.1125    0.9601    0.1024 C   0  0  0  0  0  0  0  0  0  0  0  0
    0.1167   -0.2913   -0.4868 C   0  0  0  0  0  0  0  0  0  0  0  0
   -1.9480   -3.5390   -0.3737 C   0  0  0  0  0  0  0  0  0  0  0  0
   -4.1671   -5.1662   -0.8254 C   0  0  0  0  0  0  0  0  0  0  0  0
   -3.3171   -4.8341   -1.8827 C   0  0  0  0  0  0  0  0  0  0  0  0
   -1.2856   -3.6953   -2.7660 C   0  0  0  0  0  0  0  0  0  0  0  0
   -2.0870   -0.9670    3.3498 C   0  0  0  0  0  0  0  0  0  0  0  0
   -8.2922   -9.0448   -1.4666 C   0  0  0  0  0  0  0  0  0  0  0  0
   -1.4594    1.0068    0.7597 C   0  0  0  0  0  0  0  0  0  0  0  0
   -4.8473   -5.7750   -3.3535 C   0  0  0  0  0  0  0  0  0  0  0  0
   -1.0743   -1.1908   -0.2824 C   0  0  2  0  0  0  0  0  0  0  0  0
   -1.7710   -0.4967    0.9214 C   0  0  1  0  0  0  0  0  0  0  0  0
   -5.2227   -6.7091   -2.2107 C   0  0  2  0  0  0  0  0  0  0  0  0
   -0.7528   -2.6669   -0.0948 C   0  0  0  0  0  0  0  0  0  0  0  0
   -1.3416   -1.5496    4.5395 C   0  0  0  0  0  0  0  0  0  0  0  0
   -6.9443   -8.3247   -1.3413 C   0  0  0  0  0  0  0  0  0  0  0  0
   -6.5973   -7.3247   -2.4274 C   0  0  0  0  0  0  0  0  0  0  0  0
   -2.1596   -1.5680    5.8300 C   0  0  0  0  0  0  0  0  0  0  0  0
   -1.4065   -2.2280    6.9889 C   0  0  0  0  0  0  0  0  0  0  0  0
   -2.2381   -2.2013    8.2632 C   0  0  0  0  0  0  0  0  0  0  0  0
   -1.3022   -0.9736    2.2078 N   0  0  0  0  0  0  0  0  0  0  0  0
   -1.4922   -2.8887    9.3446 N   0  3  0  0  0  0  0  0  0  0  0  0
   -1.5262   -2.6404   -3.4598 O   0  5  0  0  0  0  0  0  0  0  0  0
   -8.5737   -9.8737   -0.5582 O   0  5  0  0  0  0  0  0  0  0  0  0
   -0.2862   -4.4697   -2.9969 O   0  0  0  0  0  0  0  0  0  0  0  0
   -3.2462   -0.5669    3.4125 O   0  0  0  0  0  0  0  0  0  0  0  0
   -8.9713   -8.7013   -2.4769 O   0  0  0  0  0  0  0  0  0  0  0  0
   -3.5212   -5.2711   -3.1650 O   0  0  0  0  0  0  0  0  0  0  0  0
   -5.2622   -5.9750   -0.9791 O   0  0  0  0  0  0  0  0  0  0  0  0
    2.7566    2.5131   -0.7651 H   0  0  0  0  0  0  0  0  0  0  0  0
    3.1684    0.3057   -1.8097 H   0  0  0  0  0  0  0  0  0  0  0  0
    0.6345    2.9522    0.4544 H   0  0  0  0  0  0  0  0  0  0  0  0
    1.4725   -1.4974   -1.6578 H   0  0  0  0  0  0  0  0  0  0  0  0
   -2.6263   -3.4643    1.6764 H   0  0  0  0  0  0  0  0  0  0  0  0
   -4.5858   -4.9057    1.2784 H   0  0  0  0  0  0  0  0  0  0  0  0
   -1.4342    1.5384    1.7158 H   0  0  0  0  0  0  0  0  0  0  0  0
   -2.1761    1.4849    0.0830 H   0  0  0  0  0  0  0  0  0  0  0  0
   -4.8620   -6.3075   -4.3104 H   0  0  0  0  0  0  0  0  0  0  0  0
   -5.5345   -4.9224   -3.4284 H   0  0  0  0  0  0  0  0  0  0  0  0
   -1.7182   -1.0792   -1.1687 H   0  0  0  0  0  0  0  0  0  0  0  0
   -2.8517   -0.6815    0.9103 H   0  0  0  0  0  0  0  0  0  0  0  0
   -4.4789   -7.5105   -2.1040 H   0  0  0  0  0  0  0  0  0  0  0  0
   -0.3985   -2.8401    0.9281 H   0  0  0  0  0  0  0  0  0  0  0  0
    0.0751   -2.9509   -0.7551 H   0  0  0  0  0  0  0  0  0  0  0  0
   -0.4080   -0.9949    4.6901 H   0  0  0  0  0  0  0  0  0  0  0  0
   -1.0741   -2.5801    4.2750 H   0  0  0  0  0  0  0  0  0  0  0  0
   -6.1773   -9.1093   -1.3532 H   0  0  0  0  0  0  0  0  0  0  0  0
   -6.8961   -7.8437   -0.3563 H   0  0  0  0  0  0  0  0  0  0  0  0
   -7.3264   -6.5184   -2.4844 H   0  0  0  0  0  0  0  0  0  0  0  0
   -6.5756   -7.8248   -3.3952 H   0  0  0  0  0  0  0  0  0  0  0  0
   -2.4544   -0.5492    6.1086 H   0  0  0  0  0  0  0  0  0  0  0  0
   -3.0847   -2.1281    5.6456 H   0  0  0  0  0  0  0  0  0  0  0  0
   -1.1661   -3.2656    6.7251 H   0  0  0  0  0  0  0  0  0  0  0  0
   -0.4535   -1.7139    7.1609 H   0  0  0  0  0  0  0  0  0  0  0  0
   -3.1870   -2.7327    8.1450 H   0  0  0  0  0  0  0  0  0  0  0  0
   -2.4275   -1.1804    8.6076 H   0  0  0  0  0  0  0  0  0  0  0  0
   -0.3479   -1.3137    2.2591 H   0  0  0  0  0  0  0  0  0  0  0  0
   -1.6936   -3.8945    9.3485 H   0  0  0  0  0  0  0  0  0  0  0  0
   -1.7484   -2.5122   10.2641 H   0  0  0  0  0  0  0  0  0  0  0  0
   -0.4800   -2.7701    9.2260 H   0  0  0  0  0  0  0  0  0  0  0  0
  1  2  1  0  0  0  0
  1  3  2  0  0  0  0
  2  4  2  0  0  0  0
  3  8  1  0  0  0  0
  4  9  1  0  0  0  0
  5  6  2  0  0  0  0
  5 10  1  0  0  0  0
  6 11  1  0  0  0  0
  7 10  2  0  0  0  0
  7 12  1  0  0  0  0
  7 13  1  0  0  0  0
  8  9  2  0  0  0  0
  8 16  1  0  0  0  0
  9 18  1  0  0  0  0
 10 21  1  0  0  0  0
 11 12  2  0  0  0  0
 11 36  1  0  0  0  0
 12 35  1  0  0  0  0
 13 30  1  0  0  0  0
 13 32  2  0  0  0  0
 14 22  1  0  0  0  0
 14 28  1  0  0  0  0
 14 33  2  0  0  0  0
 15 23  1  0  0  0  0
 15 31  1  0  0  0  0
 15 34  2  0  0  0  0
 16 19  1  0  0  0  0
 17 20  1  0  0  0  0
 17 35  1  0  0  0  0
 18 19  1  0  0  0  0
 18 21  1  0  0  0  0
 19 28  1  0  0  0  0
 20 24  1  0  0  0  0
 20 36  1  0  0  0  0
 22 25  1  0  0  0  0
 23 24  1  0  0  0  0
 25 26  1  0  0  0  0
 26 27  1  0  0  0  0
 27 29  1  0  0  0  0
  1 37  1  0  0  0  0
  2 38  1  0  0  0  0
  3 39  1  0  0  0  0
  4 40  1  0  0  0  0
  5 41  1  0  0  0  0
  6 42  1  0  0  0  0
 16 43  1  0  0  0  0
 16 44  1  0  0  0  0
 17 45  1  0  0  0  0
 17 46  1  0  0  0  0
 18 47  1  0  0  0  0
 19 48  1  0  0  0  0
 20 49  1  0  0  0  0
 21 50  1  0  0  0  0
 21 51  1  0  0  0  0
 22 52  1  0  0  0  0
 22 53  1  0  0  0  0
 23 54  1  0  0  0  0
 23 55  1  0  0  0  0
 24 56  1  0  0  0  0
 24 57  1  0  0  0  0
 25 58  1  0  0  0  0
 25 59  1  0  0  0  0
 26 60  1  0  0  0  0
 26 61  1  0  0  0  0
 27 62  1  0  0  0  0
 27 63  1  0  0  0  0
 28 64  1  0  0  0  0
 29 65  1  0  0  0  0
 29 66  1  0  0  0  0
 29 67  1  0  0  0  0
M  CHG  3  29   1  30  -1  31  -1
M  END
$$$$
