AVX38779_7
  -OEChem-04011314593D

 70 72  0     1  0  0  0  0  0999 V2000
   -2.8515   -6.0281   -3.2575 C   0  0  0  0  0  0  0  0  0  0  0  0
   -3.1247   -5.0845   -4.2477 C   0  0  0  0  0  0  0  0  0  0  0  0
   -1.7369   -5.8718   -2.4335 C   0  0  0  0  0  0  0  0  0  0  0  0
   -2.2831   -3.9846   -4.4141 C   0  0  0  0  0  0  0  0  0  0  0  0
   -3.6325   -0.4324   -2.3642 C   0  0  0  0  0  0  0  0  0  0  0  0
   -4.7179    0.4210   -2.1649 C   0  0  0  0  0  0  0  0  0  0  0  0
   -0.8953   -4.7719   -2.5999 C   0  0  0  0  0  0  0  0  0  0  0  0
   -2.1580    1.1970   -1.3557 C   0  0  0  0  0  0  0  0  0  0  0  0
   -1.1684   -3.8283   -3.5902 C   0  0  0  0  0  0  0  0  0  0  0  0
   -2.3552   -0.0471   -1.9553 C   0  0  0  0  0  0  0  0  0  0  0  0
   -4.5235    1.6594   -1.5526 C   0  0  0  0  0  0  0  0  0  0  0  0
   -3.2409    2.0563   -1.1680 C   0  0  0  0  0  0  0  0  0  0  0  0
    0.4028   -0.3818   -6.7536 C   0  0  0  0  0  0  0  0  0  0  0  0
   -0.5664   -0.2775   -5.8379 C   0  0  0  0  0  0  0  0  0  0  0  0
    0.2621   -4.6334   -1.7264 C   0  0  0  0  0  0  0  0  0  0  0  0
   -0.8027    1.6050   -0.9326 C   0  0  0  0  0  0  0  0  0  0  0  0
   -8.0883    3.1335    1.0872 C   0  0  0  0  0  0  0  0  0  0  0  0
   -4.0677    4.1878   -0.7610 C   0  0  0  0  0  0  0  0  0  0  0  0
   -5.3883    3.5048   -0.4310 C   0  0  1  0  0  0  0  0  0  0  0  0
    0.3497   -6.5131    1.8256 C   0  0  0  0  0  0  0  0  0  0  0  0
    1.3505   -2.8915    0.8287 C   0  0  0  0  0  0  0  0  0  0  0  0
   -0.2799   -2.6362   -3.7915 C   0  0  0  0  0  0  0  0  0  0  0  0
   -1.2157   -0.9880   -2.1764 C   0  0  0  0  0  0  0  0  0  0  0  0
   -0.3192   -0.2135   -4.3666 C   0  0  0  0  0  0  0  0  0  0  0  0
   -7.8840    3.7900   -0.2831 C   0  0  0  0  0  0  0  0  0  0  0  0
   -6.5539    4.4786   -0.5224 C   0  0  0  0  0  0  0  0  0  0  0  0
    0.6591   -5.0283    1.9684 C   0  0  0  0  0  0  0  0  0  0  0  0
    1.0510   -4.3746    0.6370 C   0  0  1  0  0  0  0  0  0  0  0  0
    0.0116   -4.5389   -0.3536 N   0  0  0  0  0  0  0  0  0  0  0  0
   -1.0008   -1.3248   -3.6097 N   0  3  1  0  0  0  0  0  0  0  0  0
   -0.4173    1.3140    0.2585 O   0  5  0  0  0  0  0  0  0  0  0  0
   -8.8432    2.1233    1.1201 O   0  5  0  0  0  0  0  0  0  0  0  0
    1.4082   -4.5829   -2.2041 O   0  0  0  0  0  0  0  0  0  0  0  0
   -0.0609    2.2356   -1.7717 O   0  0  0  0  0  0  0  0  0  0  0  0
   -7.4521    3.6896    2.0284 O   0  0  0  0  0  0  0  0  0  0  0  0
   -2.9810    3.2719   -0.5921 O   0  0  0  0  0  0  0  0  0  0  0  0
   -5.6309    2.4441   -1.3652 O   0  0  0  0  0  0  0  0  0  0  0  0
   -3.5067   -6.8848   -3.1273 H   0  0  0  0  0  0  0  0  0  0  0  0
   -3.9926   -5.2068   -4.8891 H   0  0  0  0  0  0  0  0  0  0  0  0
   -1.5343   -6.6147   -1.6662 H   0  0  0  0  0  0  0  0  0  0  0  0
   -2.5052   -3.2549   -5.1883 H   0  0  0  0  0  0  0  0  0  0  0  0
   -3.7933   -1.3985   -2.8354 H   0  0  0  0  0  0  0  0  0  0  0  0
   -5.7108    0.1088   -2.4772 H   0  0  0  0  0  0  0  0  0  0  0  0
    0.1592   -0.4192   -7.8098 H   0  0  0  0  0  0  0  0  0  0  0  0
    1.4483   -0.4305   -6.4703 H   0  0  0  0  0  0  0  0  0  0  0  0
   -1.5984   -0.2270   -6.1753 H   0  0  0  0  0  0  0  0  0  0  0  0
   -4.0473    4.5627   -1.7923 H   0  0  0  0  0  0  0  0  0  0  0  0
   -3.8906    5.0336   -0.0883 H   0  0  0  0  0  0  0  0  0  0  0  0
   -5.3583    3.0691    0.5770 H   0  0  0  0  0  0  0  0  0  0  0  0
    1.2057   -7.0634    1.4233 H   0  0  0  0  0  0  0  0  0  0  0  0
    0.1053   -6.9419    2.8027 H   0  0  0  0  0  0  0  0  0  0  0  0
   -0.5063   -6.6729    1.1623 H   0  0  0  0  0  0  0  0  0  0  0  0
    0.4787   -2.3637    1.2288 H   0  0  0  0  0  0  0  0  0  0  0  0
    2.1887   -2.7413    1.5185 H   0  0  0  0  0  0  0  0  0  0  0  0
    1.6211   -2.4234   -0.1242 H   0  0  0  0  0  0  0  0  0  0  0  0
    0.5530   -2.6385   -3.0802 H   0  0  0  0  0  0  0  0  0  0  0  0
    0.1439   -2.6249   -4.8015 H   0  0  0  0  0  0  0  0  0  0  0  0
   -0.2701   -0.5670   -1.8117 H   0  0  0  0  0  0  0  0  0  0  0  0
   -1.3743   -1.9405   -1.6545 H   0  0  0  0  0  0  0  0  0  0  0  0
   -0.7114    0.7230   -3.9583 H   0  0  0  0  0  0  0  0  0  0  0  0
    0.7448   -0.2832   -4.1192 H   0  0  0  0  0  0  0  0  0  0  0  0
   -8.6731    4.5463   -0.3795 H   0  0  0  0  0  0  0  0  0  0  0  0
   -8.0641    3.0373   -1.0609 H   0  0  0  0  0  0  0  0  0  0  0  0
   -6.3811    5.2848    0.1886 H   0  0  0  0  0  0  0  0  0  0  0  0
   -6.5362    4.9073   -1.5241 H   0  0  0  0  0  0  0  0  0  0  0  0
   -0.2291   -4.5286    2.3736 H   0  0  0  0  0  0  0  0  0  0  0  0
    1.4630   -4.9023    2.7042 H   0  0  0  0  0  0  0  0  0  0  0  0
    1.9452   -4.8663    0.2365 H   0  0  0  0  0  0  0  0  0  0  0  0
   -0.9477   -4.5224   -0.0231 H   0  0  0  0  0  0  0  0  0  0  0  0
   -1.9300   -1.4433   -4.0454 H   0  0  0  0  0  0  0  0  0  0  0  0
  1  2  1  0  0  0  0
  1  3  2  0  0  0  0
  2  4  2  0  0  0  0
  3  7  1  0  0  0  0
  4  9  1  0  0  0  0
  5  6  2  0  0  0  0
  5 10  1  0  0  0  0
  6 11  1  0  0  0  0
  7  9  2  0  0  0  0
  7 15  1  0  0  0  0
  8 10  2  0  0  0  0
  8 12  1  0  0  0  0
  8 16  1  0  0  0  0
  9 22  1  0  0  0  0
 10 23  1  0  0  0  0
 11 12  2  0  0  0  0
 11 37  1  0  0  0  0
 12 36  1  0  0  0  0
 13 14  2  0  0  0  0
 14 24  1  0  0  0  0
 15 29  1  0  0  0  0
 15 33  2  0  0  0  0
 16 31  1  0  0  0  0
 16 34  2  0  0  0  0
 17 25  1  0  0  0  0
 17 32  1  0  0  0  0
 17 35  2  0  0  0  0
 18 19  1  0  0  0  0
 18 36  1  0  0  0  0
 19 26  1  0  0  0  0
 19 37  1  0  0  0  0
 20 27  1  0  0  0  0
 21 28  1  0  0  0  0
 22 30  1  0  0  0  0
 23 30  1  0  0  0  0
 24 30  1  0  0  0  0
 25 26  1  0  0  0  0
 27 28  1  0  0  0  0
 28 29  1  0  0  0  0
  1 38  1  0  0  0  0
  2 39  1  0  0  0  0
  3 40  1  0  0  0  0
  4 41  1  0  0  0  0
  5 42  1  0  0  0  0
  6 43  1  0  0  0  0
 13 44  1  0  0  0  0
 13 45  1  0  0  0  0
 14 46  1  0  0  0  0
 18 47  1  0  0  0  0
 18 48  1  0  0  0  0
 19 49  1  0  0  0  0
 20 50  1  0  0  0  0
 20 51  1  0  0  0  0
 20 52  1  0  0  0  0
 21 53  1  0  0  0  0
 21 54  1  0  0  0  0
 21 55  1  0  0  0  0
 22 56  1  0  0  0  0
 22 57  1  0  0  0  0
 23 58  1  0  0  0  0
 23 59  1  0  0  0  0
 24 60  1  0  0  0  0
 24 61  1  0  0  0  0
 25 62  1  0  0  0  0
 25 63  1  0  0  0  0
 26 64  1  0  0  0  0
 26 65  1  0  0  0  0
 27 66  1  0  0  0  0
 27 67  1  0  0  0  0
 28 68  1  0  0  0  0
 29 69  1  0  0  0  0
 30 70  1  0  0  0  0
M  CHG  3  30   1  31  -1  32  -1
M  END
$$$$
