AVX38752_1
  -OEChem-04011314583D

 57 60  0     1  0  0  0  0  0999 V2000
    3.1728    5.9443    4.7706 C   0  0  0  0  0  0  0  0  0  0  0  0
    5.6817   -2.0472    1.3447 C   0  0  0  0  0  0  0  0  0  0  0  0
    4.5010    5.5194    4.7399 C   0  0  0  0  0  0  0  0  0  0  0  0
    2.1601    5.0443    5.1026 C   0  0  0  0  0  0  0  0  0  0  0  0
    4.7740   -1.7161    0.3388 C   0  0  0  0  0  0  0  0  0  0  0  0
    5.8325   -1.2111    2.4510 C   0  0  0  0  0  0  0  0  0  0  0  0
    4.8165    4.1945    5.0412 C   0  0  0  0  0  0  0  0  0  0  0  0
    2.4756    3.7194    5.4039 C   0  0  0  0  0  0  0  0  0  0  0  0
    4.0170   -0.5487    0.4391 C   0  0  0  0  0  0  0  0  0  0  0  0
    0.3652    2.5623    2.1282 C   0  0  0  0  0  0  0  0  0  0  0  0
    1.0995    3.6242    0.0639 C   0  0  0  0  0  0  0  0  0  0  0  0
    5.0756   -0.0438    2.5513 C   0  0  0  0  0  0  0  0  0  0  0  0
   -0.5446    3.5957    2.3651 C   0  0  0  0  0  0  0  0  0  0  0  0
    3.8039    3.2945    5.3732 C   0  0  0  0  0  0  0  0  0  0  0  0
    1.1825    2.5765    0.9842 C   0  0  0  0  0  0  0  0  0  0  0  0
    4.1678    0.2874    1.5454 C   0  0  0  0  0  0  0  0  0  0  0  0
    0.1931    4.6322    0.3212 C   0  0  0  0  0  0  0  0  0  0  0  0
   -0.6070    4.6183    1.4409 C   0  0  0  0  0  0  0  0  0  0  0  0
    6.2215    2.8213   -0.0419 C   0  0  0  0  0  0  0  0  0  0  0  0
    4.8932    2.7588    0.1020 C   0  0  0  0  0  0  0  0  0  0  0  0
    5.2550    0.8097    3.7186 C   0  0  0  0  0  0  0  0  0  0  0  0
   -1.4005    3.5832    3.5596 C   0  0  0  0  0  0  0  0  0  0  0  0
   -1.0541    6.4002    0.2978 C   0  0  0  0  0  0  0  0  0  0  0  0
    4.1428    1.8682    5.6974 C   0  0  0  0  0  0  0  0  0  0  0  0
    2.1474    1.4619    0.7519 C   0  0  0  0  0  0  0  0  0  0  0  0
    4.1978    2.7519    1.4233 C   0  0  0  0  0  0  0  0  0  0  0  0
    4.1308    1.0287    4.5211 N   0  0  0  0  0  0  0  0  0  0  0  0
    3.3479    1.5283    1.6296 N   0  3  2  0  0  0  0  0  0  0  0  0
   -1.2980    2.6009    4.3879 O   0  5  0  0  0  0  0  0  0  0  0  0
    6.3604    1.3244    3.9570 O   0  0  0  0  0  0  0  0  0  0  0  0
   -2.2278    4.5546    3.7423 O   0  0  0  0  0  0  0  0  0  0  0  0
   -0.0266    5.7263   -0.4575 O   0  0  0  0  0  0  0  0  0  0  0  0
   -1.4275    5.7021    1.5034 O   0  0  0  0  0  0  0  0  0  0  0  0
    2.9274    6.9762    4.5373 H   0  0  0  0  0  0  0  0  0  0  0  0
    6.2710   -2.9562    1.2665 H   0  0  0  0  0  0  0  0  0  0  0  0
    5.2897    6.2203    4.4825 H   0  0  0  0  0  0  0  0  0  0  0  0
    1.1260    5.3750    5.1276 H   0  0  0  0  0  0  0  0  0  0  0  0
    4.6566   -2.3672   -0.5225 H   0  0  0  0  0  0  0  0  0  0  0  0
    6.5434   -1.4804    3.2282 H   0  0  0  0  0  0  0  0  0  0  0  0
    5.8542    3.8723    5.0147 H   0  0  0  0  0  0  0  0  0  0  0  0
    1.6801    3.0252    5.6613 H   0  0  0  0  0  0  0  0  0  0  0  0
    3.3127   -0.3007   -0.3508 H   0  0  0  0  0  0  0  0  0  0  0  0
    0.4438    1.7377    2.8340 H   0  0  0  0  0  0  0  0  0  0  0  0
    1.7242    3.6469   -0.8225 H   0  0  0  0  0  0  0  0  0  0  0  0
    6.6674    2.8275   -1.0306 H   0  0  0  0  0  0  0  0  0  0  0  0
    6.8836    2.8680    0.8155 H   0  0  0  0  0  0  0  0  0  0  0  0
    4.2741    2.7190   -0.7904 H   0  0  0  0  0  0  0  0  0  0  0  0
   -0.6934    7.3993    0.5682 H   0  0  0  0  0  0  0  0  0  0  0  0
   -1.9426    6.5057   -0.3353 H   0  0  0  0  0  0  0  0  0  0  0  0
    5.1384    1.8012    6.1495 H   0  0  0  0  0  0  0  0  0  0  0  0
    3.4305    1.4485    6.4155 H   0  0  0  0  0  0  0  0  0  0  0  0
    1.6851    0.4828    0.9349 H   0  0  0  0  0  0  0  0  0  0  0  0
    2.5201    1.4597   -0.2812 H   0  0  0  0  0  0  0  0  0  0  0  0
    3.5244    3.6111    1.5001 H   0  0  0  0  0  0  0  0  0  0  0  0
    4.8986    2.7821    2.2636 H   0  0  0  0  0  0  0  0  0  0  0  0
    3.2376    0.6344    4.2445 H   0  0  0  0  0  0  0  0  0  0  0  0
    3.0095    1.5767    2.6043 H   0  0  0  0  0  0  0  0  0  0  0  0
  1  3  2  0  0  0  0
  1  4  1  0  0  0  0
  2  5  2  0  0  0  0
  2  6  1  0  0  0  0
  3  7  1  0  0  0  0
  4  8  2  0  0  0  0
  5  9  1  0  0  0  0
  6 12  2  0  0  0  0
  7 14  2  0  0  0  0
  8 14  1  0  0  0  0
  9 16  2  0  0  0  0
 10 13  2  0  0  0  0
 10 15  1  0  0  0  0
 11 15  2  0  0  0  0
 11 17  1  0  0  0  0
 12 16  1  0  0  0  0
 12 21  1  0  0  0  0
 13 18  1  0  0  0  0
 13 22  1  0  0  0  0
 14 24  1  0  0  0  0
 15 25  1  0  0  0  0
 16 28  1  0  0  0  0
 17 18  2  0  0  0  0
 17 32  1  0  0  0  0
 18 33  1  0  0  0  0
 19 20  2  0  0  0  0
 20 26  1  0  0  0  0
 21 27  1  0  0  0  0
 21 30  2  0  0  0  0
 22 29  1  0  0  0  0
 22 31  2  0  0  0  0
 23 32  1  0  0  0  0
 23 33  1  0  0  0  0
 24 27  1  0  0  0  0
 25 28  1  0  0  0  0
 26 28  1  0  0  0  0
  1 34  1  0  0  0  0
  2 35  1  0  0  0  0
  3 36  1  0  0  0  0
  4 37  1  0  0  0  0
  5 38  1  0  0  0  0
  6 39  1  0  0  0  0
  7 40  1  0  0  0  0
  8 41  1  0  0  0  0
  9 42  1  0  0  0  0
 10 43  1  0  0  0  0
 11 44  1  0  0  0  0
 19 45  1  0  0  0  0
 19 46  1  0  0  0  0
 20 47  1  0  0  0  0
 23 48  1  0  0  0  0
 23 49  1  0  0  0  0
 24 50  1  0  0  0  0
 24 51  1  0  0  0  0
 25 52  1  0  0  0  0
 25 53  1  0  0  0  0
 26 54  1  0  0  0  0
 26 55  1  0  0  0  0
 27 56  1  0  0  0  0
 28 57  1  0  0  0  0
M  CHG  2  28   1  29  -1
M  END
$$$$
