AVX38784_5
  -OEChem-04011315003D

 66 68  0     1  0  0  0  0  0999 V2000
    0.1972   -6.1676   -2.6620 C   0  0  0  0  0  0  0  0  0  0  0  0
   -0.9536   -5.7030   -2.0253 C   0  0  0  0  0  0  0  0  0  0  0  0
    0.7277   -5.4647   -3.7438 C   0  0  0  0  0  0  0  0  0  0  0  0
   -1.5741   -4.5358   -2.4704 C   0  0  0  0  0  0  0  0  0  0  0  0
   -1.1157    1.4127   -1.5349 C   0  0  0  0  0  0  0  0  0  0  0  0
   -0.4203    2.5447   -1.1094 C   0  0  0  0  0  0  0  0  0  0  0  0
    0.1073   -4.2975   -4.1890 C   0  0  0  0  0  0  0  0  0  0  0  0
    0.9358    0.1334   -1.5060 C   0  0  0  0  0  0  0  0  0  0  0  0
   -1.0436   -3.8330   -3.5523 C   0  0  0  0  0  0  0  0  0  0  0  0
   -0.4396    0.2074   -1.7278 C   0  0  0  0  0  0  0  0  0  0  0  0
    0.9526    2.4676   -0.8739 C   0  0  0  0  0  0  0  0  0  0  0  0
    1.6341    1.2684   -1.0930 C   0  0  0  0  0  0  0  0  0  0  0  0
    0.6818   -3.5835   -5.3212 C   0  0  0  0  0  0  0  0  0  0  0  0
    1.6495   -1.1421   -1.7202 C   0  0  0  0  0  0  0  0  0  0  0  0
    2.5161    5.2033    2.5787 C   0  0  0  0  0  0  0  0  0  0  0  0
    3.6399    2.4084   -0.8299 C   0  0  0  0  0  0  0  0  0  0  0  0
    2.8756    3.3358    0.1057 C   0  0  1  0  0  0  0  0  0  0  0  0
    4.5443   -4.1173   -6.2979 C   0  0  0  0  0  0  0  0  0  0  0  0
    2.3980   -0.8860   -6.0463 C   0  0  0  0  0  0  0  0  0  0  0  0
   -1.3291   -0.1769   -4.5299 C   0  0  0  0  0  0  0  0  0  0  0  0
   -1.7316   -2.5809   -4.0106 C   0  0  0  0  0  0  0  0  0  0  0  0
   -1.2157   -0.9880   -2.1764 C   0  0  0  0  0  0  0  0  0  0  0  0
    2.7980    5.6312    1.1337 C   0  0  0  0  0  0  0  0  0  0  0  0
    3.5938    4.6665    0.2755 C   0  0  0  0  0  0  0  0  0  0  0  0
    4.2019   -2.6405   -6.1483 C   0  0  0  0  0  0  0  0  0  0  0  0
    2.6919   -2.3746   -6.2004 C   0  0  1  0  0  0  0  0  0  0  0  0
    1.9932   -3.1189   -5.1774 N   0  0  0  0  0  0  0  0  0  0  0  0
   -1.0008   -1.3248   -3.6097 N   0  3  2  0  0  0  0  0  0  0  0  0
    1.7578   -1.9588   -0.7336 O   0  5  0  0  0  0  0  0  0  0  0  0
    1.4483    5.6334    3.0947 O   0  5  0  0  0  0  0  0  0  0  0  0
    0.0107   -3.3902   -6.3491 O   0  0  0  0  0  0  0  0  0  0  0  0
    2.1352   -1.3863   -2.8849 O   0  0  0  0  0  0  0  0  0  0  0  0
    3.3998    4.4479    3.0773 O   0  0  0  0  0  0  0  0  0  0  0  0
    2.9856    1.1381   -0.9109 O   0  0  0  0  0  0  0  0  0  0  0  0
    1.5762    3.6067   -0.4373 O   0  0  0  0  0  0  0  0  0  0  0  0
    0.6809   -7.0764   -2.3155 H   0  0  0  0  0  0  0  0  0  0  0  0
   -1.3664   -6.2509   -1.1831 H   0  0  0  0  0  0  0  0  0  0  0  0
    1.6244   -5.8377   -4.2321 H   0  0  0  0  0  0  0  0  0  0  0  0
   -2.4700   -4.1822   -1.9670 H   0  0  0  0  0  0  0  0  0  0  0  0
   -2.1865    1.4790   -1.7093 H   0  0  0  0  0  0  0  0  0  0  0  0
   -0.9565    3.4765   -0.9519 H   0  0  0  0  0  0  0  0  0  0  0  0
    3.7181    2.8228   -1.8431 H   0  0  0  0  0  0  0  0  0  0  0  0
    4.6540    2.2311   -0.4560 H   0  0  0  0  0  0  0  0  0  0  0  0
    2.7412    2.8682    1.0906 H   0  0  0  0  0  0  0  0  0  0  0  0
    4.1669   -4.5220   -7.2419 H   0  0  0  0  0  0  0  0  0  0  0  0
    5.6302   -4.2548   -6.2850 H   0  0  0  0  0  0  0  0  0  0  0  0
    4.1193   -4.7031   -5.4766 H   0  0  0  0  0  0  0  0  0  0  0  0
    2.7825   -0.5067   -5.0940 H   0  0  0  0  0  0  0  0  0  0  0  0
    2.8538   -0.3050   -6.8560 H   0  0  0  0  0  0  0  0  0  0  0  0
    1.3189   -0.6981   -6.0740 H   0  0  0  0  0  0  0  0  0  0  0  0
   -2.3902    0.0512   -4.4137 H   0  0  0  0  0  0  0  0  0  0  0  0
   -0.7103    0.6735   -4.2374 H   0  0  0  0  0  0  0  0  0  0  0  0
   -1.1052   -0.4925   -5.5508 H   0  0  0  0  0  0  0  0  0  0  0  0
   -1.8237   -2.5565   -5.1017 H   0  0  0  0  0  0  0  0  0  0  0  0
   -2.7397   -2.5065   -3.5888 H   0  0  0  0  0  0  0  0  0  0  0  0
   -0.9423   -1.8832   -1.6033 H   0  0  0  0  0  0  0  0  0  0  0  0
   -2.2955   -0.8355   -2.0523 H   0  0  0  0  0  0  0  0  0  0  0  0
    3.3669    6.5672    1.1983 H   0  0  0  0  0  0  0  0  0  0  0  0
    1.8433    5.8687    0.6477 H   0  0  0  0  0  0  0  0  0  0  0  0
    4.5799    4.4708    0.6934 H   0  0  0  0  0  0  0  0  0  0  0  0
    3.7307    5.0867   -0.7206 H   0  0  0  0  0  0  0  0  0  0  0  0
    4.6022   -2.2893   -5.1895 H   0  0  0  0  0  0  0  0  0  0  0  0
    4.7141   -2.0756   -6.9371 H   0  0  0  0  0  0  0  0  0  0  0  0
    2.2927   -2.7153   -7.1627 H   0  0  0  0  0  0  0  0  0  0  0  0
    2.4729   -3.2496   -4.2928 H   0  0  0  0  0  0  0  0  0  0  0  0
    0.0056   -1.5198   -3.7389 H   0  0  0  0  0  0  0  0  0  0  0  0
  1  2  1  0  0  0  0
  1  3  2  0  0  0  0
  2  4  2  0  0  0  0
  3  7  1  0  0  0  0
  4  9  1  0  0  0  0
  5  6  2  0  0  0  0
  5 10  1  0  0  0  0
  6 11  1  0  0  0  0
  7  9  2  0  0  0  0
  7 13  1  0  0  0  0
  8 10  2  0  0  0  0
  8 12  1  0  0  0  0
  8 14  1  0  0  0  0
  9 21  1  0  0  0  0
 10 22  1  0  0  0  0
 11 12  2  0  0  0  0
 11 35  1  0  0  0  0
 12 34  1  0  0  0  0
 13 27  1  0  0  0  0
 13 31  2  0  0  0  0
 14 29  1  0  0  0  0
 14 32  2  0  0  0  0
 15 23  1  0  0  0  0
 15 30  1  0  0  0  0
 15 33  2  0  0  0  0
 16 17  1  0  0  0  0
 16 34  1  0  0  0  0
 17 24  1  0  0  0  0
 17 35  1  0  0  0  0
 18 25  1  0  0  0  0
 19 26  1  0  0  0  0
 20 28  1  0  0  0  0
 21 28  1  0  0  0  0
 22 28  1  0  0  0  0
 23 24  1  0  0  0  0
 25 26  1  0  0  0  0
 26 27  1  0  0  0  0
  1 36  1  0  0  0  0
  2 37  1  0  0  0  0
  3 38  1  0  0  0  0
  4 39  1  0  0  0  0
  5 40  1  0  0  0  0
  6 41  1  0  0  0  0
 16 42  1  0  0  0  0
 16 43  1  0  0  0  0
 17 44  1  0  0  0  0
 18 45  1  0  0  0  0
 18 46  1  0  0  0  0
 18 47  1  0  0  0  0
 19 48  1  0  0  0  0
 19 49  1  0  0  0  0
 19 50  1  0  0  0  0
 20 51  1  0  0  0  0
 20 52  1  0  0  0  0
 20 53  1  0  0  0  0
 21 54  1  0  0  0  0
 21 55  1  0  0  0  0
 22 56  1  0  0  0  0
 22 57  1  0  0  0  0
 23 58  1  0  0  0  0
 23 59  1  0  0  0  0
 24 60  1  0  0  0  0
 24 61  1  0  0  0  0
 25 62  1  0  0  0  0
 25 63  1  0  0  0  0
 26 64  1  0  0  0  0
 27 65  1  0  0  0  0
 28 66  1  0  0  0  0
M  CHG  3  28   1  29  -1  30  -1
M  END
$$$$
