AVX38669_1
  -OEChem-04011314563D

 46 48  0     1  0  0  0  0  0999 V2000
   -2.0497    3.7334    0.9584 C   0  0  0  0  0  0  0  0  0  0  0  0
   -2.1797    3.6884   -0.4296 C   0  0  0  0  0  0  0  0  0  0  0  0
   -1.8699    2.5537    1.6806 C   0  0  0  0  0  0  0  0  0  0  0  0
   -2.1299    2.4637   -1.0955 C   0  0  0  0  0  0  0  0  0  0  0  0
   -1.8201    1.3290    1.0148 C   0  0  0  0  0  0  0  0  0  0  0  0
    2.2679    2.5812   -4.1577 C   0  0  0  0  0  0  0  0  0  0  0  0
    2.7056    3.8162   -4.6420 C   0  0  0  0  0  0  0  0  0  0  0  0
    2.7862    1.5152   -6.2845 C   0  0  0  0  0  0  0  0  0  0  0  0
   -1.9502    1.2840   -0.3732 C   0  0  0  0  0  0  0  0  0  0  0  0
    2.3080    1.4373   -4.9742 C   0  0  0  0  0  0  0  0  0  0  0  0
    3.1731    3.8661   -5.9392 C   0  0  0  0  0  0  0  0  0  0  0  0
    3.2125    2.7465   -6.7384 C   0  0  0  0  0  0  0  0  0  0  0  0
    2.8394    0.3326   -7.1589 C   0  0  0  0  0  0  0  0  0  0  0  0
   -3.2764   -0.6668   -1.2265 C   0  0  0  0  0  0  0  0  0  0  0  0
    0.0426    0.0064   -2.6485 C   0  0  0  0  0  0  0  0  0  0  0  0
    3.9746    4.4263   -7.8694 C   0  0  0  0  0  0  0  0  0  0  0  0
   -0.5385    0.4857   -5.0382 C   0  0  0  0  0  0  0  0  0  0  0  0
    1.8266    0.1326   -4.4083 C   0  0  0  0  0  0  0  0  0  0  0  0
   -1.8964   -0.0444   -1.0945 C   0  0  1  0  0  0  0  0  0  0  0  0
   -3.5975   -1.4970   -0.1737 N   0  0  0  0  0  0  0  0  0  0  0  0
   -1.3250    0.1163   -2.4125 N   0  0  0  0  0  0  0  0  0  0  0  0
    0.4295    0.2018   -3.9871 N   0  0  0  0  0  0  0  0  0  0  0  0
    3.9055   -0.3901   -7.1599 O   0  5  0  0  0  0  0  0  0  0  0  0
    1.8183    0.0592   -7.8946 O   0  0  0  0  0  0  0  0  0  0  0  0
   -4.0336   -0.4457   -2.1690 O   0  0  0  0  0  0  0  0  0  0  0  0
    0.8465   -0.2351   -1.7429 O   0  0  0  0  0  0  0  0  0  0  0  0
    3.6386    4.9738   -6.5781 O   0  0  0  0  0  0  0  0  0  0  0  0
    3.7072    3.0130   -7.9778 O   0  0  0  0  0  0  0  0  0  0  0  0
   -2.0871    4.6872    1.4765 H   0  0  0  0  0  0  0  0  0  0  0  0
   -2.3186    4.6070   -0.9923 H   0  0  0  0  0  0  0  0  0  0  0  0
   -1.7675    2.5884    2.7612 H   0  0  0  0  0  0  0  0  0  0  0  0
   -2.2323    2.4383   -2.1772 H   0  0  0  0  0  0  0  0  0  0  0  0
   -1.6799    0.4149    1.5858 H   0  0  0  0  0  0  0  0  0  0  0  0
    1.8946    2.5119   -3.1387 H   0  0  0  0  0  0  0  0  0  0  0  0
    2.6765    4.7006   -4.0158 H   0  0  0  0  0  0  0  0  0  0  0  0
    3.3941    4.9528   -8.6356 H   0  0  0  0  0  0  0  0  0  0  0  0
    5.0411    4.5969   -8.0563 H   0  0  0  0  0  0  0  0  0  0  0  0
   -0.6851    1.5648   -5.1326 H   0  0  0  0  0  0  0  0  0  0  0  0
   -1.4992    0.0193   -4.8034 H   0  0  0  0  0  0  0  0  0  0  0  0
   -0.1833    0.0937   -5.9951 H   0  0  0  0  0  0  0  0  0  0  0  0
    1.9154   -0.6670   -5.1518 H   0  0  0  0  0  0  0  0  0  0  0  0
    2.4239   -0.1632   -3.5395 H   0  0  0  0  0  0  0  0  0  0  0  0
   -1.2519   -0.7425   -0.5466 H   0  0  0  0  0  0  0  0  0  0  0  0
   -2.9658   -1.6612    0.6036 H   0  0  0  0  0  0  0  0  0  0  0  0
   -4.4932   -1.9723   -0.1399 H   0  0  0  0  0  0  0  0  0  0  0  0
   -1.9411    0.3157   -3.1916 H   0  0  0  0  0  0  0  0  0  0  0  0
  1  2  2  0  0  0  0
  1  3  1  0  0  0  0
  2  4  1  0  0  0  0
  3  5  2  0  0  0  0
  4  9  2  0  0  0  0
  5  9  1  0  0  0  0
  6  7  2  0  0  0  0
  6 10  1  0  0  0  0
  7 11  1  0  0  0  0
  8 10  2  0  0  0  0
  8 12  1  0  0  0  0
  8 13  1  0  0  0  0
  9 19  1  0  0  0  0
 10 18  1  0  0  0  0
 11 12  2  0  0  0  0
 11 27  1  0  0  0  0
 12 28  1  0  0  0  0
 13 23  1  0  0  0  0
 13 24  2  0  0  0  0
 14 19  1  0  0  0  0
 14 20  1  0  0  0  0
 14 25  2  0  0  0  0
 15 21  1  0  0  0  0
 15 22  1  0  0  0  0
 15 26  2  0  0  0  0
 16 27  1  0  0  0  0
 16 28  1  0  0  0  0
 17 22  1  0  0  0  0
 18 22  1  0  0  0  0
 19 21  1  0  0  0  0
  1 29  1  0  0  0  0
  2 30  1  0  0  0  0
  3 31  1  0  0  0  0
  4 32  1  0  0  0  0
  5 33  1  0  0  0  0
  6 34  1  0  0  0  0
  7 35  1  0  0  0  0
 16 36  1  0  0  0  0
 16 37  1  0  0  0  0
 17 38  1  0  0  0  0
 17 39  1  0  0  0  0
 17 40  1  0  0  0  0
 18 41  1  0  0  0  0
 18 42  1  0  0  0  0
 19 43  1  0  0  0  0
 20 44  1  0  0  0  0
 20 45  1  0  0  0  0
 21 46  1  0  0  0  0
M  CHG  1  23  -1
M  END
$$$$
