AVX38673_1
  -OEChem-04011314563D

 58 60  0     1  0  0  0  0  0999 V2000
    3.8350    0.9248    2.1364 C   0  0  0  0  0  0  0  0  0  0  0  0
    3.9377   -0.4156    1.7644 C   0  0  0  0  0  0  0  0  0  0  0  0
    2.7754    1.7001    1.6655 C   0  0  0  0  0  0  0  0  0  0  0  0
    2.9807   -0.9807    0.9213 C   0  0  0  0  0  0  0  0  0  0  0  0
    1.8185    1.1351    0.8225 C   0  0  0  0  0  0  0  0  0  0  0  0
    0.3407   -4.8039    3.7113 C   0  0  0  0  0  0  0  0  0  0  0  0
    1.0263   -5.4811    4.7226 C   0  0  0  0  0  0  0  0  0  0  0  0
   -0.7447   -6.8665    3.0071 C   0  0  0  0  0  0  0  0  0  0  0  0
    1.9211   -0.2053    0.4504 C   0  0  0  0  0  0  0  0  0  0  0  0
   -0.5398   -5.4926    2.8584 C   0  0  0  0  0  0  0  0  0  0  0  0
    0.8063   -6.8374    4.8481 C   0  0  0  0  0  0  0  0  0  0  0  0
   -0.0556   -7.5115    4.0134 C   0  0  0  0  0  0  0  0  0  0  0  0
   -1.6615   -7.6101    2.1282 C   0  0  0  0  0  0  0  0  0  0  0  0
    1.2680   -0.6743   -1.9311 C   0  0  0  0  0  0  0  0  0  0  0  0
   -0.2663   -2.6773    0.7165 C   0  0  0  0  0  0  0  0  0  0  0  0
    0.7851   -8.9239    5.4206 C   0  0  0  0  0  0  0  0  0  0  0  0
    3.2755    3.8277   -3.5701 C   0  0  0  0  0  0  0  0  0  0  0  0
    0.5468   -4.9683    0.1094 C   0  0  0  0  0  0  0  0  0  0  0  0
   -1.2535   -4.7208    1.7865 C   0  0  0  0  0  0  0  0  0  0  0  0
    2.0216    2.9928   -3.3617 C   0  0  0  0  0  0  0  0  0  0  0  0
    2.0888    1.6791   -4.1439 C   0  0  0  0  0  0  0  0  0  0  0  0
    0.8703    0.7931   -3.9069 C   0  0  0  0  0  0  0  0  0  0  0  0
    0.8843   -0.8167   -0.4630 C   0  0  1  0  0  0  0  0  0  0  0  0
    0.7004    0.4505   -2.5132 N   0  0  0  0  0  0  0  0  0  0  0  0
    0.6837   -2.2227   -0.1939 N   0  0  0  0  0  0  0  0  0  0  0  0
   -0.3217   -4.0754    0.8651 N   0  0  0  0  0  0  0  0  0  0  0  0
   -2.8978   -7.7196    2.4724 O   0  5  0  0  0  0  0  0  0  0  0  0
   -1.1975   -8.1274    1.0438 O   0  0  0  0  0  0  0  0  0  0  0  0
    1.9682   -1.4958   -2.5197 O   0  0  0  0  0  0  0  0  0  0  0  0
   -0.9929   -1.9032    1.3469 O   0  0  0  0  0  0  0  0  0  0  0  0
    1.3810   -7.6577    5.7693 O   0  0  0  0  0  0  0  0  0  0  0  0
   -0.1281   -8.8382    4.3074 O   0  0  0  0  0  0  0  0  0  0  0  0
    4.5795    1.3642    2.7939 H   0  0  0  0  0  0  0  0  0  0  0  0
    4.7620   -1.0198    2.1318 H   0  0  0  0  0  0  0  0  0  0  0  0
    2.6946    2.7434    1.9559 H   0  0  0  0  0  0  0  0  0  0  0  0
    3.0689   -2.0258    0.6365 H   0  0  0  0  0  0  0  0  0  0  0  0
    0.9964    1.7469    0.4604 H   0  0  0  0  0  0  0  0  0  0  0  0
    0.4943   -3.7343    3.5892 H   0  0  0  0  0  0  0  0  0  0  0  0
    1.7060   -4.9539    5.3823 H   0  0  0  0  0  0  0  0  0  0  0  0
    1.5842   -9.6293    5.1652 H   0  0  0  0  0  0  0  0  0  0  0  0
    0.2415   -9.3078    6.2916 H   0  0  0  0  0  0  0  0  0  0  0  0
    3.4233    4.0552   -4.6307 H   0  0  0  0  0  0  0  0  0  0  0  0
    3.1946    4.7747   -3.0274 H   0  0  0  0  0  0  0  0  0  0  0  0
    4.1629    3.3014   -3.2042 H   0  0  0  0  0  0  0  0  0  0  0  0
    1.4733   -5.1471    0.6612 H   0  0  0  0  0  0  0  0  0  0  0  0
    0.7939   -4.5251   -0.8591 H   0  0  0  0  0  0  0  0  0  0  0  0
    0.0480   -5.9263   -0.0606 H   0  0  0  0  0  0  0  0  0  0  0  0
   -1.9025   -5.3818    1.2019 H   0  0  0  0  0  0  0  0  0  0  0  0
   -1.8891   -3.9416    2.2203 H   0  0  0  0  0  0  0  0  0  0  0  0
    1.9035    2.7833   -2.2923 H   0  0  0  0  0  0  0  0  0  0  0  0
    1.1499    3.5775   -3.6766 H   0  0  0  0  0  0  0  0  0  0  0  0
    2.1887    1.8938   -5.2151 H   0  0  0  0  0  0  0  0  0  0  0  0
    2.9860    1.1262   -3.8403 H   0  0  0  0  0  0  0  0  0  0  0  0
    0.9402   -0.1395   -4.4756 H   0  0  0  0  0  0  0  0  0  0  0  0
   -0.0389    1.3158   -4.2204 H   0  0  0  0  0  0  0  0  0  0  0  0
   -0.0932   -0.3455   -0.3039 H   0  0  0  0  0  0  0  0  0  0  0  0
    0.1334    1.0728   -1.9448 H   0  0  0  0  0  0  0  0  0  0  0  0
    1.2543   -2.9007   -0.6847 H   0  0  0  0  0  0  0  0  0  0  0  0
  1  2  1  0  0  0  0
  1  3  2  0  0  0  0
  2  4  2  0  0  0  0
  3  5  1  0  0  0  0
  4  9  1  0  0  0  0
  5  9  2  0  0  0  0
  6  7  2  0  0  0  0
  6 10  1  0  0  0  0
  7 11  1  0  0  0  0
  8 10  2  0  0  0  0
  8 12  1  0  0  0  0
  8 13  1  0  0  0  0
  9 23  1  0  0  0  0
 10 19  1  0  0  0  0
 11 12  2  0  0  0  0
 11 31  1  0  0  0  0
 12 32  1  0  0  0  0
 13 27  1  0  0  0  0
 13 28  2  0  0  0  0
 14 23  1  0  0  0  0
 14 24  1  0  0  0  0
 14 29  2  0  0  0  0
 15 25  1  0  0  0  0
 15 26  1  0  0  0  0
 15 30  2  0  0  0  0
 16 31  1  0  0  0  0
 16 32  1  0  0  0  0
 17 20  1  0  0  0  0
 18 26  1  0  0  0  0
 19 26  1  0  0  0  0
 20 21  1  0  0  0  0
 21 22  1  0  0  0  0
 22 24  1  0  0  0  0
 23 25  1  0  0  0  0
  1 33  1  0  0  0  0
  2 34  1  0  0  0  0
  3 35  1  0  0  0  0
  4 36  1  0  0  0  0
  5 37  1  0  0  0  0
  6 38  1  0  0  0  0
  7 39  1  0  0  0  0
 16 40  1  0  0  0  0
 16 41  1  0  0  0  0
 17 42  1  0  0  0  0
 17 43  1  0  0  0  0
 17 44  1  0  0  0  0
 18 45  1  0  0  0  0
 18 46  1  0  0  0  0
 18 47  1  0  0  0  0
 19 48  1  0  0  0  0
 19 49  1  0  0  0  0
 20 50  1  0  0  0  0
 20 51  1  0  0  0  0
 21 52  1  0  0  0  0
 21 53  1  0  0  0  0
 22 54  1  0  0  0  0
 22 55  1  0  0  0  0
 23 56  1  0  0  0  0
 24 57  1  0  0  0  0
 25 58  1  0  0  0  0
M  CHG  1  27  -1
M  END
$$$$
