AVX38674_1
  -OEChem-04011314563D

 59 62  0     1  0  0  0  0  0999 V2000
    2.4183   -4.8137    4.5410 C   0  0  0  0  0  0  0  0  0  0  0  0
    3.8681    1.3155    2.0065 C   0  0  0  0  0  0  0  0  0  0  0  0
    2.7913   -5.0435    3.2167 C   0  0  0  0  0  0  0  0  0  0  0  0
    1.1725   -4.2557    4.8279 C   0  0  0  0  0  0  0  0  0  0  0  0
    2.5716    1.1736    2.5010 C   0  0  0  0  0  0  0  0  0  0  0  0
    4.1872    0.8327    0.7373 C   0  0  0  0  0  0  0  0  0  0  0  0
    1.9185   -4.7152    2.1794 C   0  0  0  0  0  0  0  0  0  0  0  0
    0.2997   -3.9274    3.7906 C   0  0  0  0  0  0  0  0  0  0  0  0
    1.5942    0.5488    1.7264 C   0  0  0  0  0  0  0  0  0  0  0  0
    3.2098    0.2080   -0.0373 C   0  0  0  0  0  0  0  0  0  0  0  0
   -1.7430    0.5617   -5.4313 C   0  0  0  0  0  0  0  0  0  0  0  0
   -2.5985    0.0461   -6.4079 C   0  0  0  0  0  0  0  0  0  0  0  0
   -0.2687    1.4716   -7.1421 C   0  0  0  0  0  0  0  0  0  0  0  0
    0.6726   -4.1572    2.4663 C   0  0  0  0  0  0  0  0  0  0  0  0
    1.9133    0.0660    0.4572 C   0  0  0  0  0  0  0  0  0  0  0  0
   -0.5848    1.2704   -5.7963 C   0  0  0  0  0  0  0  0  0  0  0  0
   -2.2635    0.2587   -7.7294 C   0  0  0  0  0  0  0  0  0  0  0  0
   -1.1299    0.9524   -8.0867 C   0  0  0  0  0  0  0  0  0  0  0  0
    0.9369    2.2106   -7.5501 C   0  0  0  0  0  0  0  0  0  0  0  0
    0.8107   -2.1139   -0.1327 C   0  0  0  0  0  0  0  0  0  0  0  0
    0.5136    0.6885   -2.4731 C   0  0  0  0  0  0  0  0  0  0  0  0
   -2.1571    0.3378   -9.8891 C   0  0  0  0  0  0  0  0  0  0  0  0
    1.6473   -0.2595   -4.4964 C   0  0  0  0  0  0  0  0  0  0  0  0
   -0.2672   -3.8034    1.3502 C   0  0  0  0  0  0  0  0  0  0  0  0
    0.3032    1.8051   -4.7101 C   0  0  0  0  0  0  0  0  0  0  0  0
    0.8551   -0.6111   -0.3823 C   0  0  2  0  0  0  0  0  0  0  0  0
   -0.0702   -2.4489    0.8861 N   0  0  0  0  0  0  0  0  0  0  0  0
    1.0674   -0.3942   -1.7956 N   0  0  0  0  0  0  0  0  0  0  0  0
    0.8120    0.7420   -3.8470 N   0  0  0  0  0  0  0  0  0  0  0  0
    0.8559    3.4852   -7.7165 O   0  5  0  0  0  0  0  0  0  0  0  0
    2.0333    1.5585   -7.7277 O   0  0  0  0  0  0  0  0  0  0  0  0
    1.5135   -2.9129   -0.7486 O   0  0  0  0  0  0  0  0  0  0  0  0
   -0.1919    1.5267   -1.9035 O   0  0  0  0  0  0  0  0  0  0  0  0
   -2.9721   -0.1657   -8.8109 O   0  0  0  0  0  0  0  0  0  0  0  0
   -0.9867    1.0489   -9.4365 O   0  0  0  0  0  0  0  0  0  0  0  0
    3.0975   -5.0706    5.3486 H   0  0  0  0  0  0  0  0  0  0  0  0
    4.6287    1.8032    2.6092 H   0  0  0  0  0  0  0  0  0  0  0  0
    3.7608   -5.4789    2.9931 H   0  0  0  0  0  0  0  0  0  0  0  0
    0.8814   -4.0777    5.8589 H   0  0  0  0  0  0  0  0  0  0  0  0
    2.3227    1.5504    3.4888 H   0  0  0  0  0  0  0  0  0  0  0  0
    5.1962    0.9440    0.3516 H   0  0  0  0  0  0  0  0  0  0  0  0
    2.2176   -4.8976    1.1505 H   0  0  0  0  0  0  0  0  0  0  0  0
   -0.6688   -3.4930    4.0237 H   0  0  0  0  0  0  0  0  0  0  0  0
    0.5867    0.4425    2.1200 H   0  0  0  0  0  0  0  0  0  0  0  0
    3.4676   -0.1652   -1.0249 H   0  0  0  0  0  0  0  0  0  0  0  0
   -1.9821    0.4098   -4.3814 H   0  0  0  0  0  0  0  0  0  0  0  0
   -3.4925   -0.5008   -6.1308 H   0  0  0  0  0  0  0  0  0  0  0  0
   -1.8363   -0.5065  -10.5102 H   0  0  0  0  0  0  0  0  0  0  0  0
   -2.7641    1.0147  -10.5013 H   0  0  0  0  0  0  0  0  0  0  0  0
    1.0292   -1.0815   -4.8669 H   0  0  0  0  0  0  0  0  0  0  0  0
    2.3774   -0.6599   -3.7878 H   0  0  0  0  0  0  0  0  0  0  0  0
    2.1840    0.1846   -5.3391 H   0  0  0  0  0  0  0  0  0  0  0  0
   -0.1247   -4.4761    0.4975 H   0  0  0  0  0  0  0  0  0  0  0  0
   -1.3103   -3.8995    1.6695 H   0  0  0  0  0  0  0  0  0  0  0  0
    1.1627    2.3321   -5.1385 H   0  0  0  0  0  0  0  0  0  0  0  0
   -0.2350    2.5200   -4.0789 H   0  0  0  0  0  0  0  0  0  0  0  0
   -0.1335   -0.1867   -0.1694 H   0  0  0  0  0  0  0  0  0  0  0  0
   -0.6092   -1.7168    1.3390 H   0  0  0  0  0  0  0  0  0  0  0  0
    1.6389   -1.0530   -2.3109 H   0  0  0  0  0  0  0  0  0  0  0  0
  1  3  1  0  0  0  0
  1  4  2  0  0  0  0
  2  5  1  0  0  0  0
  2  6  2  0  0  0  0
  3  7  2  0  0  0  0
  4  8  1  0  0  0  0
  5  9  2  0  0  0  0
  6 10  1  0  0  0  0
  7 14  1  0  0  0  0
  8 14  2  0  0  0  0
  9 15  1  0  0  0  0
 10 15  2  0  0  0  0
 11 12  2  0  0  0  0
 11 16  1  0  0  0  0
 12 17  1  0  0  0  0
 13 16  2  0  0  0  0
 13 18  1  0  0  0  0
 13 19  1  0  0  0  0
 14 24  1  0  0  0  0
 15 26  1  0  0  0  0
 16 25  1  0  0  0  0
 17 18  2  0  0  0  0
 17 34  1  0  0  0  0
 18 35  1  0  0  0  0
 19 30  1  0  0  0  0
 19 31  2  0  0  0  0
 20 26  1  0  0  0  0
 20 27  1  0  0  0  0
 20 32  2  0  0  0  0
 21 28  1  0  0  0  0
 21 29  1  0  0  0  0
 21 33  2  0  0  0  0
 22 34  1  0  0  0  0
 22 35  1  0  0  0  0
 23 29  1  0  0  0  0
 24 27  1  0  0  0  0
 25 29  1  0  0  0  0
 26 28  1  0  0  0  0
  1 36  1  0  0  0  0
  2 37  1  0  0  0  0
  3 38  1  0  0  0  0
  4 39  1  0  0  0  0
  5 40  1  0  0  0  0
  6 41  1  0  0  0  0
  7 42  1  0  0  0  0
  8 43  1  0  0  0  0
  9 44  1  0  0  0  0
 10 45  1  0  0  0  0
 11 46  1  0  0  0  0
 12 47  1  0  0  0  0
 22 48  1  0  0  0  0
 22 49  1  0  0  0  0
 23 50  1  0  0  0  0
 23 51  1  0  0  0  0
 23 52  1  0  0  0  0
 24 53  1  0  0  0  0
 24 54  1  0  0  0  0
 25 55  1  0  0  0  0
 25 56  1  0  0  0  0
 26 57  1  0  0  0  0
 27 58  1  0  0  0  0
 28 59  1  0  0  0  0
M  CHG  1  30  -1
M  END
$$$$
