AVX38786_0
  -OEChem-04011315013D

 71 74  0     1  0  0  0  0  0999 V2000
    7.1225   -2.1197    4.8276 C   0  0  0  0  0  0  0  0  0  0  0  0
    7.4569   -1.8441    3.5018 C   0  0  0  0  0  0  0  0  0  0  0  0
    5.7995   -1.9988    5.2527 C   0  0  0  0  0  0  0  0  0  0  0  0
    6.4684   -1.4476    2.6011 C   0  0  0  0  0  0  0  0  0  0  0  0
    0.6033   -3.5877    1.6501 C   0  0  0  0  0  0  0  0  0  0  0  0
    0.8854    1.8214    4.3092 C   0  0  0  0  0  0  0  0  0  0  0  0
   -0.1870   -0.3432    4.2731 C   0  0  0  0  0  0  0  0  0  0  0  0
   -0.2485   -4.6424    1.3213 C   0  0  0  0  0  0  0  0  0  0  0  0
    0.0111    2.2711    3.3197 C   0  0  0  0  0  0  0  0  0  0  0  0
   -1.0613    0.1065    3.2836 C   0  0  0  0  0  0  0  0  0  0  0  0
    4.8109   -1.6023    4.3521 C   0  0  0  0  0  0  0  0  0  0  0  0
    0.5160   -2.7967   -0.6329 C   0  0  0  0  0  0  0  0  0  0  0  0
    0.7864    0.5142    4.7858 C   0  0  0  0  0  0  0  0  0  0  0  0
    5.1454   -1.3266    3.0262 C   0  0  0  0  0  0  0  0  0  0  0  0
    0.9894   -2.6694    0.6732 C   0  0  0  0  0  0  0  0  0  0  0  0
   -0.7112   -4.7783    0.0121 C   0  0  0  0  0  0  0  0  0  0  0  0
   -0.3469   -3.8433   -0.9593 C   0  0  0  0  0  0  0  0  0  0  0  0
   -0.9623    1.4136    2.8070 C   0  0  0  0  0  0  0  0  0  0  0  0
    3.4375   -1.4833    4.8226 C   0  0  0  0  0  0  0  0  0  0  0  0
    0.9196   -1.8170   -1.6623 C   0  0  0  0  0  0  0  0  0  0  0  0
   -3.5726   -9.5069   -1.3744 C   0  0  0  0  0  0  0  0  0  0  0  0
   -1.9182   -4.7791   -2.3895 C   0  0  0  0  0  0  0  0  0  0  0  0
   -1.6549   -6.0907   -1.6614 C   0  0  2  0  0  0  0  0  0  0  0  0
    3.9388   -2.9292    0.6058 C   0  0  0  0  0  0  0  0  0  0  0  0
   -2.7871    0.9242    1.3626 C   0  0  0  0  0  0  0  0  0  0  0  0
    1.7270    0.0303    5.8513 C   0  0  0  0  0  0  0  0  0  0  0  0
    4.1025   -0.8977    2.0366 C   0  0  0  0  0  0  0  0  0  0  0  0
    1.9102   -1.5568    1.0567 C   0  0  0  0  0  0  0  0  0  0  0  0
   -2.5090   -8.4144   -1.2133 C   0  0  0  0  0  0  0  0  0  0  0  0
   -2.7997   -7.0734   -1.8592 C   0  0  0  0  0  0  0  0  0  0  0  0
    3.0465   -0.2385    5.3265 N   0  0  0  0  0  0  0  0  0  0  0  0
    3.2198   -2.0313    1.5800 N   0  3  1  0  0  0  0  0  0  0  0  0
    0.1955   -0.7684   -1.8299 O   0  5  0  0  0  0  0  0  0  0  0  0
   -3.3236  -10.6187   -0.8329 O   0  5  0  0  0  0  0  0  0  0  0  0
    2.6735   -2.4627    4.7872 O   0  0  0  0  0  0  0  0  0  0  0  0
    1.9792   -2.0510   -2.3511 O   0  0  0  0  0  0  0  0  0  0  0  0
   -4.5913   -9.1455   -2.0314 O   0  0  0  0  0  0  0  0  0  0  0  0
   -0.7945   -3.9035   -2.2527 O   0  0  0  0  0  0  0  0  0  0  0  0
   -1.5279   -5.8455   -0.2539 O   0  0  0  0  0  0  0  0  0  0  0  0
   -1.8161    1.8530    1.8424 O   0  0  0  0  0  0  0  0  0  0  0  0
    7.8919   -2.4287    5.5294 H   0  0  0  0  0  0  0  0  0  0  0  0
    8.4873   -1.9382    3.1714 H   0  0  0  0  0  0  0  0  0  0  0  0
    5.5518   -2.2154    6.2888 H   0  0  0  0  0  0  0  0  0  0  0  0
    6.7396   -1.2357    1.5702 H   0  0  0  0  0  0  0  0  0  0  0  0
    0.9650   -3.4929    2.6707 H   0  0  0  0  0  0  0  0  0  0  0  0
    1.6407    2.4962    4.7029 H   0  0  0  0  0  0  0  0  0  0  0  0
   -0.2715   -1.3635    4.6384 H   0  0  0  0  0  0  0  0  0  0  0  0
   -0.5351   -5.3593    2.0859 H   0  0  0  0  0  0  0  0  0  0  0  0
    0.0931    3.2907    2.9526 H   0  0  0  0  0  0  0  0  0  0  0  0
   -1.8175   -0.5661    2.8886 H   0  0  0  0  0  0  0  0  0  0  0  0
   -2.0688   -4.9534   -3.4601 H   0  0  0  0  0  0  0  0  0  0  0  0
   -2.8069   -4.2658   -2.0003 H   0  0  0  0  0  0  0  0  0  0  0  0
   -0.7194   -6.5481   -2.0116 H   0  0  0  0  0  0  0  0  0  0  0  0
    4.1510   -2.3457   -0.2920 H   0  0  0  0  0  0  0  0  0  0  0  0
    4.8614   -3.2674    1.0814 H   0  0  0  0  0  0  0  0  0  0  0  0
    3.2819   -3.7714    0.3802 H   0  0  0  0  0  0  0  0  0  0  0  0
   -3.4030    1.4026    0.5971 H   0  0  0  0  0  0  0  0  0  0  0  0
   -3.4139    0.5895    2.1930 H   0  0  0  0  0  0  0  0  0  0  0  0
   -2.2721    0.0644    0.9278 H   0  0  0  0  0  0  0  0  0  0  0  0
    1.8260    0.7767    6.6470 H   0  0  0  0  0  0  0  0  0  0  0  0
    1.3566   -0.8907    6.3137 H   0  0  0  0  0  0  0  0  0  0  0  0
    3.4410   -0.1362    2.4634 H   0  0  0  0  0  0  0  0  0  0  0  0
    4.5616   -0.4744    1.1366 H   0  0  0  0  0  0  0  0  0  0  0  0
    2.1352   -0.9080    0.2007 H   0  0  0  0  0  0  0  0  0  0  0  0
    1.4729   -0.9261    1.8413 H   0  0  0  0  0  0  0  0  0  0  0  0
   -1.5927   -8.8117   -1.6679 H   0  0  0  0  0  0  0  0  0  0  0  0
   -2.3049   -8.2815   -0.1434 H   0  0  0  0  0  0  0  0  0  0  0  0
   -3.7083   -6.6217   -1.4649 H   0  0  0  0  0  0  0  0  0  0  0  0
   -2.9295   -7.2023   -2.9333 H   0  0  0  0  0  0  0  0  0  0  0  0
    3.7297    0.5091    5.3903 H   0  0  0  0  0  0  0  0  0  0  0  0
    3.0316   -2.6060    2.4177 H   0  0  0  0  0  0  0  0  0  0  0  0
  1  2  1  0  0  0  0
  1  3  2  0  0  0  0
  2  4  2  0  0  0  0
  3 11  1  0  0  0  0
  4 14  1  0  0  0  0
  5  8  2  0  0  0  0
  5 15  1  0  0  0  0
  6  9  2  0  0  0  0
  6 13  1  0  0  0  0
  7 10  1  0  0  0  0
  7 13  2  0  0  0  0
  8 16  1  0  0  0  0
  9 18  1  0  0  0  0
 10 18  2  0  0  0  0
 11 14  2  0  0  0  0
 11 19  1  0  0  0  0
 12 15  2  0  0  0  0
 12 17  1  0  0  0  0
 12 20  1  0  0  0  0
 13 26  1  0  0  0  0
 14 27  1  0  0  0  0
 15 28  1  0  0  0  0
 16 17  2  0  0  0  0
 16 39  1  0  0  0  0
 17 38  1  0  0  0  0
 18 40  1  0  0  0  0
 19 31  1  0  0  0  0
 19 35  2  0  0  0  0
 20 33  1  0  0  0  0
 20 36  2  0  0  0  0
 21 29  1  0  0  0  0
 21 34  1  0  0  0  0
 21 37  2  0  0  0  0
 22 23  1  0  0  0  0
 22 38  1  0  0  0  0
 23 30  1  0  0  0  0
 23 39  1  0  0  0  0
 24 32  1  0  0  0  0
 25 40  1  0  0  0  0
 26 31  1  0  0  0  0
 27 32  1  0  0  0  0
 28 32  1  0  0  0  0
 29 30  1  0  0  0  0
  1 41  1  0  0  0  0
  2 42  1  0  0  0  0
  3 43  1  0  0  0  0
  4 44  1  0  0  0  0
  5 45  1  0  0  0  0
  6 46  1  0  0  0  0
  7 47  1  0  0  0  0
  8 48  1  0  0  0  0
  9 49  1  0  0  0  0
 10 50  1  0  0  0  0
 22 51  1  0  0  0  0
 22 52  1  0  0  0  0
 23 53  1  0  0  0  0
 24 54  1  0  0  0  0
 24 55  1  0  0  0  0
 24 56  1  0  0  0  0
 25 57  1  0  0  0  0
 25 58  1  0  0  0  0
 25 59  1  0  0  0  0
 26 60  1  0  0  0  0
 26 61  1  0  0  0  0
 27 62  1  0  0  0  0
 27 63  1  0  0  0  0
 28 64  1  0  0  0  0
 28 65  1  0  0  0  0
 29 66  1  0  0  0  0
 29 67  1  0  0  0  0
 30 68  1  0  0  0  0
 30 69  1  0  0  0  0
 31 70  1  0  0  0  0
 32 71  1  0  0  0  0
M  CHG  3  32   1  33  -1  34  -1
M  END
$$$$
