AVX38784_4
  -OEChem-04011315003D

 66 68  0     1  0  0  0  0  0999 V2000
    0.2734   -6.1537   -2.7387 C   0  0  0  0  0  0  0  0  0  0  0  0
    0.7632   -5.4151   -3.8157 C   0  0  0  0  0  0  0  0  0  0  0  0
   -0.8749   -5.7321   -2.0684 C   0  0  0  0  0  0  0  0  0  0  0  0
    0.1047   -4.2547   -4.2225 C   0  0  0  0  0  0  0  0  0  0  0  0
   -1.1157    1.4127   -1.5349 C   0  0  0  0  0  0  0  0  0  0  0  0
   -0.4203    2.5447   -1.1094 C   0  0  0  0  0  0  0  0  0  0  0  0
   -1.5334   -4.5717   -2.4752 C   0  0  0  0  0  0  0  0  0  0  0  0
    0.9358    0.1334   -1.5060 C   0  0  0  0  0  0  0  0  0  0  0  0
   -1.0436   -3.8330   -3.5523 C   0  0  0  0  0  0  0  0  0  0  0  0
   -0.4396    0.2074   -1.7278 C   0  0  0  0  0  0  0  0  0  0  0  0
    0.9526    2.4676   -0.8739 C   0  0  0  0  0  0  0  0  0  0  0  0
    1.6341    1.2684   -1.0930 C   0  0  0  0  0  0  0  0  0  0  0  0
   -2.7299   -4.1535   -1.7573 C   0  0  0  0  0  0  0  0  0  0  0  0
    1.6495   -1.1421   -1.7202 C   0  0  0  0  0  0  0  0  0  0  0  0
    2.5161    5.2033    2.5787 C   0  0  0  0  0  0  0  0  0  0  0  0
    3.6399    2.4084   -0.8299 C   0  0  0  0  0  0  0  0  0  0  0  0
    2.8756    3.3358    0.1057 C   0  0  1  0  0  0  0  0  0  0  0  0
   -3.3147   -5.4771    1.9956 C   0  0  0  0  0  0  0  0  0  0  0  0
   -3.8414   -1.9654    0.4142 C   0  0  0  0  0  0  0  0  0  0  0  0
   -1.3292   -0.1769   -4.5299 C   0  0  0  0  0  0  0  0  0  0  0  0
   -1.7316   -2.5809   -4.0106 C   0  0  0  0  0  0  0  0  0  0  0  0
   -1.2157   -0.9880   -2.1764 C   0  0  0  0  0  0  0  0  0  0  0  0
    2.7980    5.6312    1.1337 C   0  0  0  0  0  0  0  0  0  0  0  0
    3.5938    4.6665    0.2755 C   0  0  0  0  0  0  0  0  0  0  0  0
   -3.4778   -3.9655    1.9006 C   0  0  0  0  0  0  0  0  0  0  0  0
   -3.6836   -3.4816    0.4595 C   0  0  2  0  0  0  0  0  0  0  0  0
   -2.5873   -3.8831   -0.3925 N   0  0  0  0  0  0  0  0  0  0  0  0
   -1.0008   -1.3248   -3.6097 N   0  3  2  0  0  0  0  0  0  0  0  0
    1.7578   -1.9588   -0.7336 O   0  5  0  0  0  0  0  0  0  0  0  0
    1.4483    5.6334    3.0947 O   0  5  0  0  0  0  0  0  0  0  0  0
   -3.8201   -4.0686   -2.3476 O   0  0  0  0  0  0  0  0  0  0  0  0
    2.1352   -1.3863   -2.8849 O   0  0  0  0  0  0  0  0  0  0  0  0
    3.3998    4.4479    3.0773 O   0  0  0  0  0  0  0  0  0  0  0  0
    2.9856    1.1381   -0.9109 O   0  0  0  0  0  0  0  0  0  0  0  0
    1.5762    3.6067   -0.4373 O   0  0  0  0  0  0  0  0  0  0  0  0
    0.7857   -7.0576   -2.4215 H   0  0  0  0  0  0  0  0  0  0  0  0
    1.6576   -5.7438   -4.3370 H   0  0  0  0  0  0  0  0  0  0  0  0
   -1.2460   -6.3158   -1.2299 H   0  0  0  0  0  0  0  0  0  0  0  0
    0.4944   -3.6868   -5.0632 H   0  0  0  0  0  0  0  0  0  0  0  0
   -2.1865    1.4790   -1.7093 H   0  0  0  0  0  0  0  0  0  0  0  0
   -0.9565    3.4765   -0.9519 H   0  0  0  0  0  0  0  0  0  0  0  0
    3.7181    2.8228   -1.8431 H   0  0  0  0  0  0  0  0  0  0  0  0
    4.6540    2.2311   -0.4560 H   0  0  0  0  0  0  0  0  0  0  0  0
    2.7412    2.8682    1.0906 H   0  0  0  0  0  0  0  0  0  0  0  0
   -2.4640   -5.8259    1.4022 H   0  0  0  0  0  0  0  0  0  0  0  0
   -3.1409   -5.7720    3.0354 H   0  0  0  0  0  0  0  0  0  0  0  0
   -4.2150   -5.9911    1.6440 H   0  0  0  0  0  0  0  0  0  0  0  0
   -2.9565   -1.4665    0.8225 H   0  0  0  0  0  0  0  0  0  0  0  0
   -3.9914   -1.6119   -0.6122 H   0  0  0  0  0  0  0  0  0  0  0  0
   -4.7098   -1.6474    1.0016 H   0  0  0  0  0  0  0  0  0  0  0  0
   -2.3902    0.0512   -4.4137 H   0  0  0  0  0  0  0  0  0  0  0  0
   -0.7103    0.6735   -4.2374 H   0  0  0  0  0  0  0  0  0  0  0  0
   -1.1052   -0.4925   -5.5508 H   0  0  0  0  0  0  0  0  0  0  0  0
   -1.8237   -2.5565   -5.1017 H   0  0  0  0  0  0  0  0  0  0  0  0
   -2.7397   -2.5065   -3.5888 H   0  0  0  0  0  0  0  0  0  0  0  0
   -0.9423   -1.8832   -1.6033 H   0  0  0  0  0  0  0  0  0  0  0  0
   -2.2955   -0.8355   -2.0523 H   0  0  0  0  0  0  0  0  0  0  0  0
    3.3669    6.5672    1.1983 H   0  0  0  0  0  0  0  0  0  0  0  0
    1.8433    5.8687    0.6477 H   0  0  0  0  0  0  0  0  0  0  0  0
    4.5799    4.4708    0.6934 H   0  0  0  0  0  0  0  0  0  0  0  0
    3.7307    5.0867   -0.7206 H   0  0  0  0  0  0  0  0  0  0  0  0
   -4.3405   -3.6729    2.5113 H   0  0  0  0  0  0  0  0  0  0  0  0
   -2.5948   -3.4848    2.3399 H   0  0  0  0  0  0  0  0  0  0  0  0
   -4.5868   -3.9430    0.0435 H   0  0  0  0  0  0  0  0  0  0  0  0
   -1.6869   -4.0295    0.0521 H   0  0  0  0  0  0  0  0  0  0  0  0
    0.0056   -1.5198   -3.7389 H   0  0  0  0  0  0  0  0  0  0  0  0
  1  2  1  0  0  0  0
  1  3  2  0  0  0  0
  2  4  2  0  0  0  0
  3  7  1  0  0  0  0
  4  9  1  0  0  0  0
  5  6  2  0  0  0  0
  5 10  1  0  0  0  0
  6 11  1  0  0  0  0
  7  9  2  0  0  0  0
  7 13  1  0  0  0  0
  8 10  2  0  0  0  0
  8 12  1  0  0  0  0
  8 14  1  0  0  0  0
  9 21  1  0  0  0  0
 10 22  1  0  0  0  0
 11 12  2  0  0  0  0
 11 35  1  0  0  0  0
 12 34  1  0  0  0  0
 13 27  1  0  0  0  0
 13 31  2  0  0  0  0
 14 29  1  0  0  0  0
 14 32  2  0  0  0  0
 15 23  1  0  0  0  0
 15 30  1  0  0  0  0
 15 33  2  0  0  0  0
 16 17  1  0  0  0  0
 16 34  1  0  0  0  0
 17 24  1  0  0  0  0
 17 35  1  0  0  0  0
 18 25  1  0  0  0  0
 19 26  1  0  0  0  0
 20 28  1  0  0  0  0
 21 28  1  0  0  0  0
 22 28  1  0  0  0  0
 23 24  1  0  0  0  0
 25 26  1  0  0  0  0
 26 27  1  0  0  0  0
  1 36  1  0  0  0  0
  2 37  1  0  0  0  0
  3 38  1  0  0  0  0
  4 39  1  0  0  0  0
  5 40  1  0  0  0  0
  6 41  1  0  0  0  0
 16 42  1  0  0  0  0
 16 43  1  0  0  0  0
 17 44  1  0  0  0  0
 18 45  1  0  0  0  0
 18 46  1  0  0  0  0
 18 47  1  0  0  0  0
 19 48  1  0  0  0  0
 19 49  1  0  0  0  0
 19 50  1  0  0  0  0
 20 51  1  0  0  0  0
 20 52  1  0  0  0  0
 20 53  1  0  0  0  0
 21 54  1  0  0  0  0
 21 55  1  0  0  0  0
 22 56  1  0  0  0  0
 22 57  1  0  0  0  0
 23 58  1  0  0  0  0
 23 59  1  0  0  0  0
 24 60  1  0  0  0  0
 24 61  1  0  0  0  0
 25 62  1  0  0  0  0
 25 63  1  0  0  0  0
 26 64  1  0  0  0  0
 27 65  1  0  0  0  0
 28 66  1  0  0  0  0
M  CHG  3  28   1  29  -1  30  -1
M  END
$$$$
