AVX38785_2
  -OEChem-04011315013D

 67 70  0     1  0  0  0  0  0999 V2000
    7.4374   -1.8015   -2.5602 C   0  0  0  0  0  0  0  0  0  0  0  0
    0.8041   -1.4712   -8.3538 C   0  0  0  0  0  0  0  0  0  0  0  0
    7.2836   -2.7505   -3.5708 C   0  0  0  0  0  0  0  0  0  0  0  0
    6.3246   -1.3547   -1.8477 C   0  0  0  0  0  0  0  0  0  0  0  0
    0.0708   -0.3296   -8.0304 C   0  0  0  0  0  0  0  0  0  0  0  0
    1.2986   -2.2927   -7.3407 C   0  0  0  0  0  0  0  0  0  0  0  0
    6.0169   -3.2526   -3.8690 C   0  0  0  0  0  0  0  0  0  0  0  0
    5.0579   -1.8568   -2.1459 C   0  0  0  0  0  0  0  0  0  0  0  0
   -0.1679   -0.0093   -6.6939 C   0  0  0  0  0  0  0  0  0  0  0  0
    0.8019   -0.6244   -0.7686 C   0  0  0  0  0  0  0  0  0  0  0  0
    1.8108   -1.0844    0.0779 C   0  0  0  0  0  0  0  0  0  0  0  0
    1.0600   -1.9724   -6.0042 C   0  0  0  0  0  0  0  0  0  0  0  0
   -0.0766   -2.8695   -0.9522 C   0  0  0  0  0  0  0  0  0  0  0  0
    4.9040   -2.8058   -3.1566 C   0  0  0  0  0  0  0  0  0  0  0  0
    0.3267   -0.8308   -5.6808 C   0  0  0  0  0  0  0  0  0  0  0  0
   -0.1436   -1.5148   -1.2787 C   0  0  0  0  0  0  0  0  0  0  0  0
    1.8698   -2.4366    0.4160 C   0  0  0  0  0  0  0  0  0  0  0  0
    0.9398   -3.3323   -0.1161 C   0  0  0  0  0  0  0  0  0  0  0  0
    1.5885   -2.8471   -4.9662 C   0  0  0  0  0  0  0  0  0  0  0  0
   -1.0741   -3.8105   -1.5017 C   0  0  0  0  0  0  0  0  0  0  0  0
    3.4548   -3.3234    4.7231 C   0  0  0  0  0  0  0  0  0  0  0  0
    2.2139   -5.0857    0.7172 C   0  0  0  0  0  0  0  0  0  0  0  0
    2.6327   -4.1252    1.8223 C   0  0  1  0  0  0  0  0  0  0  0  0
   -2.2816   -1.3075   -4.4044 C   0  0  0  0  0  0  0  0  0  0  0  0
    3.5402   -3.3457   -3.4772 C   0  0  0  0  0  0  0  0  0  0  0  0
    0.0557   -0.4623   -4.2519 C   0  0  0  0  0  0  0  0  0  0  0  0
   -1.2157   -0.9880   -2.1764 C   0  0  0  0  0  0  0  0  0  0  0  0
    4.3923   -3.5886    3.5391 C   0  0  0  0  0  0  0  0  0  0  0  0
    3.9172   -4.5833    2.4974 C   0  0  0  0  0  0  0  0  0  0  0  0
    2.8706   -2.5585   -4.4874 N   0  0  0  0  0  0  0  0  0  0  0  0
   -1.0008   -1.3248   -3.6097 N   0  3  1  0  0  0  0  0  0  0  0  0
   -2.1535   -4.0194   -0.8361 O   0  5  0  0  0  0  0  0  0  0  0  0
    3.5109   -2.1733    5.2384 O   0  5  0  0  0  0  0  0  0  0  0  0
    0.9207   -3.8114   -4.5561 O   0  0  0  0  0  0  0  0  0  0  0  0
   -0.8242   -4.3844   -2.6243 O   0  0  0  0  0  0  0  0  0  0  0  0
    2.7197   -4.3053    5.0321 O   0  0  0  0  0  0  0  0  0  0  0  0
    0.9646   -4.6756    0.1520 O   0  0  0  0  0  0  0  0  0  0  0  0
    2.8704   -2.8242    1.2679 O   0  0  0  0  0  0  0  0  0  0  0  0
    8.4240   -1.4116   -2.3273 H   0  0  0  0  0  0  0  0  0  0  0  0
    0.9901   -1.7211   -9.3944 H   0  0  0  0  0  0  0  0  0  0  0  0
    8.1501   -3.0993   -4.1249 H   0  0  0  0  0  0  0  0  0  0  0  0
    6.4441   -0.6166   -1.0601 H   0  0  0  0  0  0  0  0  0  0  0  0
   -0.3138    0.3098   -8.8197 H   0  0  0  0  0  0  0  0  0  0  0  0
    1.8696   -3.1789   -7.6057 H   0  0  0  0  0  0  0  0  0  0  0  0
    5.9065   -3.9917   -4.6582 H   0  0  0  0  0  0  0  0  0  0  0  0
    4.1965   -1.5028   -1.5857 H   0  0  0  0  0  0  0  0  0  0  0  0
   -0.7408    0.8822   -6.4528 H   0  0  0  0  0  0  0  0  0  0  0  0
    0.7584    0.4318   -1.0216 H   0  0  0  0  0  0  0  0  0  0  0  0
    2.5369   -0.3824    0.4787 H   0  0  0  0  0  0  0  0  0  0  0  0
    2.9587   -5.1337   -0.0874 H   0  0  0  0  0  0  0  0  0  0  0  0
    2.0772   -6.0971    1.1145 H   0  0  0  0  0  0  0  0  0  0  0  0
    1.8397   -4.0329    2.5770 H   0  0  0  0  0  0  0  0  0  0  0  0
   -2.6787   -0.2912   -4.3757 H   0  0  0  0  0  0  0  0  0  0  0  0
   -2.0446   -1.6077   -5.4268 H   0  0  0  0  0  0  0  0  0  0  0  0
   -2.9732   -2.0122   -3.9387 H   0  0  0  0  0  0  0  0  0  0  0  0
    3.6091   -4.3760   -3.8431 H   0  0  0  0  0  0  0  0  0  0  0  0
    2.9034   -3.3589   -2.5864 H   0  0  0  0  0  0  0  0  0  0  0  0
    0.9582   -0.5618   -3.6393 H   0  0  0  0  0  0  0  0  0  0  0  0
   -0.2910    0.5735   -4.1695 H   0  0  0  0  0  0  0  0  0  0  0  0
   -2.2000   -1.3922   -1.9073 H   0  0  0  0  0  0  0  0  0  0  0  0
   -1.2836    0.1060   -2.1218 H   0  0  0  0  0  0  0  0  0  0  0  0
    5.3245   -3.9759    3.9693 H   0  0  0  0  0  0  0  0  0  0  0  0
    4.6326   -2.6297    3.0630 H   0  0  0  0  0  0  0  0  0  0  0  0
    3.7439   -5.5686    2.9269 H   0  0  0  0  0  0  0  0  0  0  0  0
    4.6705   -4.6871    1.7169 H   0  0  0  0  0  0  0  0  0  0  0  0
    3.3967   -1.7964   -4.9025 H   0  0  0  0  0  0  0  0  0  0  0  0
   -0.6472   -2.2946   -3.6529 H   0  0  0  0  0  0  0  0  0  0  0  0
  1  3  1  0  0  0  0
  1  4  2  0  0  0  0
  2  5  1  0  0  0  0
  2  6  2  0  0  0  0
  3  7  2  0  0  0  0
  4  8  1  0  0  0  0
  5  9  2  0  0  0  0
  6 12  1  0  0  0  0
  7 14  1  0  0  0  0
  8 14  2  0  0  0  0
  9 15  1  0  0  0  0
 10 11  2  0  0  0  0
 10 16  1  0  0  0  0
 11 17  1  0  0  0  0
 12 15  2  0  0  0  0
 12 19  1  0  0  0  0
 13 16  2  0  0  0  0
 13 18  1  0  0  0  0
 13 20  1  0  0  0  0
 14 25  1  0  0  0  0
 15 26  1  0  0  0  0
 16 27  1  0  0  0  0
 17 18  2  0  0  0  0
 17 38  1  0  0  0  0
 18 37  1  0  0  0  0
 19 30  1  0  0  0  0
 19 34  2  0  0  0  0
 20 32  1  0  0  0  0
 20 35  2  0  0  0  0
 21 28  1  0  0  0  0
 21 33  1  0  0  0  0
 21 36  2  0  0  0  0
 22 23  1  0  0  0  0
 22 37  1  0  0  0  0
 23 29  1  0  0  0  0
 23 38  1  0  0  0  0
 24 31  1  0  0  0  0
 25 30  1  0  0  0  0
 26 31  1  0  0  0  0
 27 31  1  0  0  0  0
 28 29  1  0  0  0  0
  1 39  1  0  0  0  0
  2 40  1  0  0  0  0
  3 41  1  0  0  0  0
  4 42  1  0  0  0  0
  5 43  1  0  0  0  0
  6 44  1  0  0  0  0
  7 45  1  0  0  0  0
  8 46  1  0  0  0  0
  9 47  1  0  0  0  0
 10 48  1  0  0  0  0
 11 49  1  0  0  0  0
 22 50  1  0  0  0  0
 22 51  1  0  0  0  0
 23 52  1  0  0  0  0
 24 53  1  0  0  0  0
 24 54  1  0  0  0  0
 24 55  1  0  0  0  0
 25 56  1  0  0  0  0
 25 57  1  0  0  0  0
 26 58  1  0  0  0  0
 26 59  1  0  0  0  0
 27 60  1  0  0  0  0
 27 61  1  0  0  0  0
 28 62  1  0  0  0  0
 28 63  1  0  0  0  0
 29 64  1  0  0  0  0
 29 65  1  0  0  0  0
 30 66  1  0  0  0  0
 31 67  1  0  0  0  0
M  CHG  3  31   1  32  -1  33  -1
M  END
$$$$
