AVX38705_0
  -OEChem-04011314563D

 46 48  0     1  0  0  0  0  0999 V2000
   -0.9338    0.7920    3.6975 C   0  0  0  0  0  0  0  0  0  0  0  0
   -0.6897    1.7958    2.7603 C   0  0  0  0  0  0  0  0  0  0  0  0
   -0.8610   -0.5485    3.3187 C   0  0  0  0  0  0  0  0  0  0  0  0
   -0.3730    1.4592    1.4442 C   0  0  0  0  0  0  0  0  0  0  0  0
    4.5606    0.0883   -1.7729 C   0  0  0  0  0  0  0  0  0  0  0  0
    5.8852   -0.3384   -1.8947 C   0  0  0  0  0  0  0  0  0  0  0  0
   -0.5443   -0.8851    2.0026 C   0  0  0  0  0  0  0  0  0  0  0  0
    4.4807   -0.6796    0.5363 C   0  0  0  0  0  0  0  0  0  0  0  0
   -0.3003    0.1187    1.0654 C   0  0  0  0  0  0  0  0  0  0  0  0
    3.8624   -0.0812   -0.5643 C   0  0  0  0  0  0  0  0  0  0  0  0
    6.4725   -0.9261   -0.7932 C   0  0  0  0  0  0  0  0  0  0  0  0
    5.7891   -1.0920    0.3897 C   0  0  0  0  0  0  0  0  0  0  0  0
   -0.4758   -2.2926    1.6337 C   0  0  0  0  0  0  0  0  0  0  0  0
    3.7721   -0.8677    1.8124 C   0  0  0  0  0  0  0  0  0  0  0  0
    7.7883   -1.8831    0.6332 C   0  0  0  0  0  0  0  0  0  0  0  0
    0.6609   -4.4864    2.0465 C   0  0  0  0  0  0  0  0  0  0  0  0
    1.5941   -1.5752   -1.7534 C   0  0  0  0  0  0  0  0  0  0  0  0
    0.0417   -0.2149   -0.3568 C   0  0  0  0  0  0  0  0  0  0  0  0
    2.4466    0.3918   -0.4829 C   0  0  0  0  0  0  0  0  0  0  0  0
    0.4575   -3.0809    2.3148 N   0  0  0  0  0  0  0  0  0  0  0  0
    1.4540   -0.7156   -0.5229 N   0  3  2  0  0  0  0  0  0  0  0  0
    3.8330    0.0650    2.6985 O   0  5  0  0  0  0  0  0  0  0  0  0
   -1.2085   -2.7444    0.7375 O   0  0  0  0  0  0  0  0  0  0  0  0
    3.1146   -1.9589    2.0014 O   0  0  0  0  0  0  0  0  0  0  0  0
    7.7464   -1.3996   -0.7250 O   0  0  0  0  0  0  0  0  0  0  0  0
    6.5496   -1.6905    1.3466 O   0  0  0  0  0  0  0  0  0  0  0  0
   -1.1802    1.0536    4.7226 H   0  0  0  0  0  0  0  0  0  0  0  0
   -0.7467    2.8395    3.0558 H   0  0  0  0  0  0  0  0  0  0  0  0
   -1.0544   -1.3214    4.0582 H   0  0  0  0  0  0  0  0  0  0  0  0
   -0.1842    2.2490    0.7220 H   0  0  0  0  0  0  0  0  0  0  0  0
    4.0721    0.5554   -2.6248 H   0  0  0  0  0  0  0  0  0  0  0  0
    6.4271   -0.2095   -2.8247 H   0  0  0  0  0  0  0  0  0  0  0  0
    8.0211   -2.9540    0.6174 H   0  0  0  0  0  0  0  0  0  0  0  0
    8.5870   -1.3569    1.1686 H   0  0  0  0  0  0  0  0  0  0  0  0
    0.0556   -5.0903    2.7275 H   0  0  0  0  0  0  0  0  0  0  0  0
    1.7133   -4.7491    2.1840 H   0  0  0  0  0  0  0  0  0  0  0  0
    0.3728   -4.7204    1.0181 H   0  0  0  0  0  0  0  0  0  0  0  0
    1.4020   -0.9457   -2.6241 H   0  0  0  0  0  0  0  0  0  0  0  0
    2.6118   -1.9700   -1.7711 H   0  0  0  0  0  0  0  0  0  0  0  0
    0.8615   -2.3815   -1.6828 H   0  0  0  0  0  0  0  0  0  0  0  0
   -0.6173   -0.9966   -0.7497 H   0  0  0  0  0  0  0  0  0  0  0  0
   -0.0590    0.6629   -1.0042 H   0  0  0  0  0  0  0  0  0  0  0  0
    2.2602    0.9423    0.4477 H   0  0  0  0  0  0  0  0  0  0  0  0
    2.1989    1.0610   -1.3165 H   0  0  0  0  0  0  0  0  0  0  0  0
    1.0744   -2.6466    2.9935 H   0  0  0  0  0  0  0  0  0  0  0  0
    1.6402   -1.3338    0.2838 H   0  0  0  0  0  0  0  0  0  0  0  0
  1  2  1  0  0  0  0
  1  3  2  0  0  0  0
  2  4  2  0  0  0  0
  3  7  1  0  0  0  0
  4  9  1  0  0  0  0
  5  6  2  0  0  0  0
  5 10  1  0  0  0  0
  6 11  1  0  0  0  0
  7  9  2  0  0  0  0
  7 13  1  0  0  0  0
  8 10  2  0  0  0  0
  8 12  1  0  0  0  0
  8 14  1  0  0  0  0
  9 18  1  0  0  0  0
 10 19  1  0  0  0  0
 11 12  2  0  0  0  0
 11 25  1  0  0  0  0
 12 26  1  0  0  0  0
 13 20  1  0  0  0  0
 13 23  2  0  0  0  0
 14 22  1  0  0  0  0
 14 24  2  0  0  0  0
 15 25  1  0  0  0  0
 15 26  1  0  0  0  0
 16 20  1  0  0  0  0
 17 21  1  0  0  0  0
 18 21  1  0  0  0  0
 19 21  1  0  0  0  0
  1 27  1  0  0  0  0
  2 28  1  0  0  0  0
  3 29  1  0  0  0  0
  4 30  1  0  0  0  0
  5 31  1  0  0  0  0
  6 32  1  0  0  0  0
 15 33  1  0  0  0  0
 15 34  1  0  0  0  0
 16 35  1  0  0  0  0
 16 36  1  0  0  0  0
 16 37  1  0  0  0  0
 17 38  1  0  0  0  0
 17 39  1  0  0  0  0
 17 40  1  0  0  0  0
 18 41  1  0  0  0  0
 18 42  1  0  0  0  0
 19 43  1  0  0  0  0
 19 44  1  0  0  0  0
 20 45  1  0  0  0  0
 21 46  1  0  0  0  0
M  CHG  2  21   1  22  -1
M  END
$$$$
