AVX38711_1
  -OEChem-04011314563D

 37 39  0     1  0  0  0  0  0999 V2000
    7.8457   -4.1400    3.1171 C   0  0  0  0  0  0  0  0  0  0  0  0
    6.7631   -3.3969    3.5876 C   0  0  0  0  0  0  0  0  0  0  0  0
    7.9283   -4.4729    1.7650 C   0  0  0  0  0  0  0  0  0  0  0  0
    0.2901   -2.1086   -0.3617 C   0  0  0  0  0  0  0  0  0  0  0  0
    0.7072   -0.8245    0.0243 C   0  0  0  0  0  0  0  0  0  0  0  0
    5.7630   -2.9867    2.7061 C   0  0  0  0  0  0  0  0  0  0  0  0
    6.9281   -4.0627    0.8835 C   0  0  0  0  0  0  0  0  0  0  0  0
    1.1795   -3.1863   -0.3309 C   0  0  0  0  0  0  0  0  0  0  0  0
    2.0195   -0.6011    0.4428 C   0  0  0  0  0  0  0  0  0  0  0  0
    5.8455   -3.3196    1.3540 C   0  0  0  0  0  0  0  0  0  0  0  0
    2.4820   -2.9524    0.0751 C   0  0  0  0  0  0  0  0  0  0  0  0
    2.8847   -1.6785    0.4519 C   0  0  0  0  0  0  0  0  0  0  0  0
    2.4556    0.7414    0.8527 C   0  0  0  0  0  0  0  0  0  0  0  0
    3.0694   -7.1927   -1.8078 C   0  0  0  0  0  0  0  0  0  0  0  0
    3.6112   -3.9021    0.2684 C   0  0  2  0  0  0  0  0  0  0  0  0
    4.7621   -2.8756    0.3983 C   0  0  1  0  0  0  0  0  0  0  0  0
    2.9204   -6.1008   -0.7419 C   0  0  0  0  0  0  0  0  0  0  0  0
    3.8275   -4.8915   -0.8671 C   0  0  0  0  0  0  0  0  0  0  0  0
    1.6034    1.7079    0.8231 O   0  5  0  0  0  0  0  0  0  0  0  0
    2.3101   -8.1940   -1.6974 O   0  5  0  0  0  0  0  0  0  0  0  0
    3.6766    0.9107    1.2288 O   0  0  0  0  0  0  0  0  0  0  0  0
    3.9423   -6.9419   -2.6882 O   0  0  0  0  0  0  0  0  0  0  0  0
    4.1978   -1.6103    0.8449 O   0  0  0  0  0  0  0  0  0  0  0  0
    8.6250   -4.4582    3.8034 H   0  0  0  0  0  0  0  0  0  0  0  0
    6.6992   -3.1367    4.6402 H   0  0  0  0  0  0  0  0  0  0  0  0
    8.7715   -5.0505    1.3982 H   0  0  0  0  0  0  0  0  0  0  0  0
   -0.7374   -2.2666   -0.6785 H   0  0  0  0  0  0  0  0  0  0  0  0
   -0.0082   -0.0061   -0.0038 H   0  0  0  0  0  0  0  0  0  0  0  0
    4.9231   -2.4082    3.0816 H   0  0  0  0  0  0  0  0  0  0  0  0
    7.0007   -4.3268   -0.1682 H   0  0  0  0  0  0  0  0  0  0  0  0
    0.8455   -4.1796   -0.6104 H   0  0  0  0  0  0  0  0  0  0  0  0
    3.4528   -4.4439    1.2103 H   0  0  0  0  0  0  0  0  0  0  0  0
    5.2412   -2.6821   -0.5856 H   0  0  0  0  0  0  0  0  0  0  0  0
    3.1373   -6.5822    0.2200 H   0  0  0  0  0  0  0  0  0  0  0  0
    1.8706   -5.7831   -0.7123 H   0  0  0  0  0  0  0  0  0  0  0  0
    3.6765   -4.3676   -1.8095 H   0  0  0  0  0  0  0  0  0  0  0  0
    4.8697   -5.2072   -0.8239 H   0  0  0  0  0  0  0  0  0  0  0  0
  1  2  2  0  0  0  0
  1  3  1  0  0  0  0
  2  6  1  0  0  0  0
  3  7  2  0  0  0  0
  4  5  1  0  0  0  0
  4  8  2  0  0  0  0
  5  9  2  0  0  0  0
  6 10  2  0  0  0  0
  7 10  1  0  0  0  0
  8 11  1  0  0  0  0
  9 12  1  0  0  0  0
  9 13  1  0  0  0  0
 10 16  1  0  0  0  0
 11 12  2  0  0  0  0
 11 15  1  0  0  0  0
 12 23  1  0  0  0  0
 13 19  1  0  0  0  0
 13 21  2  0  0  0  0
 14 17  1  0  0  0  0
 14 20  1  0  0  0  0
 14 22  2  0  0  0  0
 15 16  1  0  0  0  0
 15 18  1  0  0  0  0
 16 23  1  0  0  0  0
 17 18  1  0  0  0  0
  1 24  1  0  0  0  0
  2 25  1  0  0  0  0
  3 26  1  0  0  0  0
  4 27  1  0  0  0  0
  5 28  1  0  0  0  0
  6 29  1  0  0  0  0
  7 30  1  0  0  0  0
  8 31  1  0  0  0  0
 15 32  1  0  0  0  0
 16 33  1  0  0  0  0
 17 34  1  0  0  0  0
 17 35  1  0  0  0  0
 18 36  1  0  0  0  0
 18 37  1  0  0  0  0
M  CHG  2  19  -1  20  -1
M  END
$$$$
