AVX38781_0
  -OEChem-04011314593D

 77 80  0     1  0  0  0  0  0999 V2000
    6.2574   -3.0359   -6.4943 C   0  0  0  0  0  0  0  0  0  0  0  0
    5.9176   -1.7126   -6.7757 C   0  0  0  0  0  0  0  0  0  0  0  0
    5.2563   -3.9933   -6.3306 C   0  0  0  0  0  0  0  0  0  0  0  0
    4.5767   -1.3468   -6.8933 C   0  0  0  0  0  0  0  0  0  0  0  0
   -1.3397   -2.3474   -6.2432 C   0  0  0  0  0  0  0  0  0  0  0  0
   -2.1676   -3.1532   -5.4613 C   0  0  0  0  0  0  0  0  0  0  0  0
    3.9154   -3.6275   -6.4482 C   0  0  0  0  0  0  0  0  0  0  0  0
   -1.1264   -4.1284   -7.8644 C   0  0  0  0  0  0  0  0  0  0  0  0
    3.5756   -2.3042   -6.7296 C   0  0  0  0  0  0  0  0  0  0  0  0
   -0.8153   -2.8363   -7.4402 C   0  0  0  0  0  0  0  0  0  0  0  0
   -2.4677   -4.4504   -5.8780 C   0  0  0  0  0  0  0  0  0  0  0  0
   -1.9653   -4.9299   -7.0897 C   0  0  0  0  0  0  0  0  0  0  0  0
    1.8785    0.3144  -10.5379 C   0  0  0  0  0  0  0  0  0  0  0  0
    2.3238   -0.3515   -9.4668 C   0  0  0  0  0  0  0  0  0  0  0  0
    2.8901   -4.6470   -6.2718 C   0  0  0  0  0  0  0  0  0  0  0  0
   -0.5767   -4.6391   -9.1370 C   0  0  0  0  0  0  0  0  0  0  0  0
   -5.2404   -7.8825   -2.2720 C   0  0  0  0  0  0  0  0  0  0  0  0
    2.5433   -9.3760   -2.3603 C   0  0  0  0  0  0  0  0  0  0  0  0
    3.6107   -8.3219   -2.6374 C   0  0  0  0  0  0  0  0  0  0  0  0
    1.6041   -9.5495   -3.5499 C   0  0  0  0  0  0  0  0  0  0  0  0
    2.9923   -6.9916   -3.0611 C   0  0  0  0  0  0  0  0  0  0  0  0
    0.9824   -8.2212   -3.9753 C   0  0  0  0  0  0  0  0  0  0  0  0
   -3.3682   -6.7696   -6.8954 C   0  0  0  0  0  0  0  0  0  0  0  0
    2.0535   -7.1607   -4.2634 C   0  0  0  0  0  0  0  0  0  0  0  0
   -3.2262   -6.5950   -5.3891 C   0  0  2  0  0  0  0  0  0  0  0  0
    2.1416   -1.8830   -6.8608 C   0  0  0  0  0  0  0  0  0  0  0  0
    0.0756   -1.9505   -8.2492 C   0  0  0  0  0  0  0  0  0  0  0  0
    2.3088   -1.8396   -9.3452 C   0  0  0  0  0  0  0  0  0  0  0  0
   -4.1808   -7.1927   -3.1392 C   0  0  0  0  0  0  0  0  0  0  0  0
    1.4067   -5.8275   -4.6344 C   0  0  0  0  0  0  0  0  0  0  0  0
   -4.3594   -7.2835   -4.6426 C   0  0  0  0  0  0  0  0  0  0  0  0
    2.4057   -4.8398   -4.9739 N   0  0  0  0  0  0  0  0  0  0  0  0
    1.5135   -2.3221   -8.1589 N   0  3  1  0  0  0  0  0  0  0  0  0
   -1.2510   -4.4541  -10.2155 O   0  5  0  0  0  0  0  0  0  0  0  0
   -5.0851   -7.8009   -1.0228 O   0  5  0  0  0  0  0  0  0  0  0  0
    2.4952   -5.3163   -7.2414 O   0  0  0  0  0  0  0  0  0  0  0  0
    0.5544   -5.2490   -9.1169 O   0  0  0  0  0  0  0  0  0  0  0  0
   -6.1617   -8.4465   -2.9301 O   0  0  0  0  0  0  0  0  0  0  0  0
   -2.2508   -6.1813   -7.5688 O   0  0  0  0  0  0  0  0  0  0  0  0
   -3.2689   -5.2001   -5.0577 O   0  0  0  0  0  0  0  0  0  0  0  0
    7.3015   -3.3214   -6.4028 H   0  0  0  0  0  0  0  0  0  0  0  0
    6.6976   -0.9675   -6.9028 H   0  0  0  0  0  0  0  0  0  0  0  0
    5.5340   -5.0209   -6.1105 H   0  0  0  0  0  0  0  0  0  0  0  0
    4.3229   -0.3132   -7.1132 H   0  0  0  0  0  0  0  0  0  0  0  0
   -1.1049   -1.3405   -5.9081 H   0  0  0  0  0  0  0  0  0  0  0  0
   -2.5624   -2.7682   -4.5250 H   0  0  0  0  0  0  0  0  0  0  0  0
    1.9205    1.3977  -10.5681 H   0  0  0  0  0  0  0  0  0  0  0  0
    1.4683   -0.2034  -11.3977 H   0  0  0  0  0  0  0  0  0  0  0  0
    2.7305    0.2153   -8.6333 H   0  0  0  0  0  0  0  0  0  0  0  0
    3.0225  -10.3333   -2.1263 H   0  0  0  0  0  0  0  0  0  0  0  0
    1.9625   -9.0832   -1.4770 H   0  0  0  0  0  0  0  0  0  0  0  0
    4.2238   -8.1748   -1.7409 H   0  0  0  0  0  0  0  0  0  0  0  0
    4.2817   -8.6803   -3.4278 H   0  0  0  0  0  0  0  0  0  0  0  0
    2.1583   -9.9794   -4.3933 H   0  0  0  0  0  0  0  0  0  0  0  0
    0.8121  -10.2618   -3.2924 H   0  0  0  0  0  0  0  0  0  0  0  0
    2.4404   -6.5651   -2.2136 H   0  0  0  0  0  0  0  0  0  0  0  0
    3.7921   -6.2830   -3.3074 H   0  0  0  0  0  0  0  0  0  0  0  0
    0.3639   -8.3804   -4.8667 H   0  0  0  0  0  0  0  0  0  0  0  0
    0.3108   -7.8678   -3.1823 H   0  0  0  0  0  0  0  0  0  0  0  0
   -3.3891   -7.8315   -7.1624 H   0  0  0  0  0  0  0  0  0  0  0  0
   -4.2865   -6.3050   -7.2769 H   0  0  0  0  0  0  0  0  0  0  0  0
    2.6443   -7.4844   -5.1273 H   0  0  0  0  0  0  0  0  0  0  0  0
   -2.2651   -6.9971   -5.0405 H   0  0  0  0  0  0  0  0  0  0  0  0
    1.5297   -2.3054   -6.0566 H   0  0  0  0  0  0  0  0  0  0  0  0
    2.0440   -0.7929   -6.8170 H   0  0  0  0  0  0  0  0  0  0  0  0
   -0.1864   -1.9818   -9.3145 H   0  0  0  0  0  0  0  0  0  0  0  0
    0.0046   -0.9046   -7.9239 H   0  0  0  0  0  0  0  0  0  0  0  0
    3.3265   -2.2176   -9.2080 H   0  0  0  0  0  0  0  0  0  0  0  0
    1.8721   -2.3254  -10.2236 H   0  0  0  0  0  0  0  0  0  0  0  0
   -3.2244   -7.6683   -2.8879 H   0  0  0  0  0  0  0  0  0  0  0  0
   -4.1076   -6.1422   -2.8309 H   0  0  0  0  0  0  0  0  0  0  0  0
    0.8235   -5.4375   -3.7948 H   0  0  0  0  0  0  0  0  0  0  0  0
    0.7460   -5.9440   -5.4985 H   0  0  0  0  0  0  0  0  0  0  0  0
   -5.2995   -6.8406   -4.9668 H   0  0  0  0  0  0  0  0  0  0  0  0
   -4.3583   -8.3285   -4.9512 H   0  0  0  0  0  0  0  0  0  0  0  0
    2.8088   -4.3091   -4.2086 H   0  0  0  0  0  0  0  0  0  0  0  0
    1.5709   -3.3536   -8.1731 H   0  0  0  0  0  0  0  0  0  0  0  0
  1  2  1  0  0  0  0
  1  3  2  0  0  0  0
  2  4  2  0  0  0  0
  3  7  1  0  0  0  0
  4  9  1  0  0  0  0
  5  6  2  0  0  0  0
  5 10  1  0  0  0  0
  6 11  1  0  0  0  0
  7  9  2  0  0  0  0
  7 15  1  0  0  0  0
  8 10  2  0  0  0  0
  8 12  1  0  0  0  0
  8 16  1  0  0  0  0
  9 26  1  0  0  0  0
 10 27  1  0  0  0  0
 11 12  2  0  0  0  0
 11 40  1  0  0  0  0
 12 39  1  0  0  0  0
 13 14  2  0  0  0  0
 14 28  1  0  0  0  0
 15 32  1  0  0  0  0
 15 36  2  0  0  0  0
 16 34  1  0  0  0  0
 16 37  2  0  0  0  0
 17 29  1  0  0  0  0
 17 35  1  0  0  0  0
 17 38  2  0  0  0  0
 18 19  1  0  0  0  0
 18 20  1  0  0  0  0
 19 21  1  0  0  0  0
 20 22  1  0  0  0  0
 21 24  1  0  0  0  0
 22 24  1  0  0  0  0
 23 25  1  0  0  0  0
 23 39  1  0  0  0  0
 24 30  1  0  0  0  0
 25 31  1  0  0  0  0
 25 40  1  0  0  0  0
 26 33  1  0  0  0  0
 27 33  1  0  0  0  0
 28 33  1  0  0  0  0
 29 31  1  0  0  0  0
 30 32  1  0  0  0  0
  1 41  1  0  0  0  0
  2 42  1  0  0  0  0
  3 43  1  0  0  0  0
  4 44  1  0  0  0  0
  5 45  1  0  0  0  0
  6 46  1  0  0  0  0
 13 47  1  0  0  0  0
 13 48  1  0  0  0  0
 14 49  1  0  0  0  0
 18 50  1  0  0  0  0
 18 51  1  0  0  0  0
 19 52  1  0  0  0  0
 19 53  1  0  0  0  0
 20 54  1  0  0  0  0
 20 55  1  0  0  0  0
 21 56  1  0  0  0  0
 21 57  1  0  0  0  0
 22 58  1  0  0  0  0
 22 59  1  0  0  0  0
 23 60  1  0  0  0  0
 23 61  1  0  0  0  0
 24 62  1  0  0  0  0
 25 63  1  0  0  0  0
 26 64  1  0  0  0  0
 26 65  1  0  0  0  0
 27 66  1  0  0  0  0
 27 67  1  0  0  0  0
 28 68  1  0  0  0  0
 28 69  1  0  0  0  0
 29 70  1  0  0  0  0
 29 71  1  0  0  0  0
 30 72  1  0  0  0  0
 30 73  1  0  0  0  0
 31 74  1  0  0  0  0
 31 75  1  0  0  0  0
 32 76  1  0  0  0  0
 33 77  1  0  0  0  0
M  CHG  3  33   1  34  -1  35  -1
M  END
$$$$
