AVX38788_3
  -OEChem-04011315013D

 67 70  0     1  0  0  0  0  0999 V2000
    4.9098   -8.0740   -0.0639 C   0  0  0  0  0  0  0  0  0  0  0  0
    5.9025   -7.1705    0.3151 C   0  0  0  0  0  0  0  0  0  0  0  0
    3.5649   -7.7414    0.0988 C   0  0  0  0  0  0  0  0  0  0  0  0
    5.5504   -5.9343    0.8569 C   0  0  0  0  0  0  0  0  0  0  0  0
    4.1382   -0.4122   -1.1384 C   0  0  0  0  0  0  0  0  0  0  0  0
    3.7122    0.4688   -2.1326 C   0  0  0  0  0  0  0  0  0  0  0  0
    3.2129   -6.5052    0.6405 C   0  0  0  0  0  0  0  0  0  0  0  0
    3.3956   -2.2870   -2.4725 C   0  0  0  0  0  0  0  0  0  0  0  0
    4.2056   -5.6016    1.0196 C   0  0  0  0  0  0  0  0  0  0  0  0
    3.9850   -1.7884   -1.3105 C   0  0  0  0  0  0  0  0  0  0  0  0
    3.1357   -0.0300   -3.3010 C   0  0  0  0  0  0  0  0  0  0  0  0
    2.9576   -1.4059   -3.4615 C   0  0  0  0  0  0  0  0  0  0  0  0
    1.8011   -6.1836    0.8001 C   0  0  0  0  0  0  0  0  0  0  0  0
    3.2268   -3.7442   -2.6467 C   0  0  0  0  0  0  0  0  0  0  0  0
    4.0178    2.4650   -7.1541 C   0  0  0  0  0  0  0  0  0  0  0  0
   -2.5824   -8.3698   -1.1703 C   0  0  0  0  0  0  0  0  0  0  0  0
   -2.6886   -6.9253   -0.6383 C   0  0  0  0  0  0  0  0  0  0  0  0
   -1.0618   -8.1346   -1.2839 C   0  0  0  0  0  0  0  0  0  0  0  0
    1.6612   -0.9769   -5.3397 C   0  0  0  0  0  0  0  0  0  0  0  0
   -1.2218   -7.0677   -0.1810 C   0  0  0  0  0  0  0  0  0  0  0  0
    2.5168    0.2695   -5.5233 C   0  0  1  0  0  0  0  0  0  0  0  0
    2.4782   -2.2273    1.2052 C   0  0  0  0  0  0  0  0  0  0  0  0
    3.8553   -4.2655    1.6054 C   0  0  0  0  0  0  0  0  0  0  0  0
    4.4590   -2.7048   -0.2296 C   0  0  0  0  0  0  0  0  0  0  0  0
    2.6239    2.5753   -6.5251 C   0  0  0  0  0  0  0  0  0  0  0  0
   -0.3886   -5.8458   -0.3687 C   0  0  0  0  0  0  0  0  0  0  0  0
    1.8210    1.2939   -6.4077 C   0  0  0  0  0  0  0  0  0  0  0  0
    1.0201   -6.1689   -0.3601 N   0  0  0  0  0  0  0  0  0  0  0  0
    3.3517   -3.2839    0.5781 N   0  3  2  0  0  0  0  0  0  0  0  0
    4.1720   -4.4093   -3.2092 O   0  5  0  0  0  0  0  0  0  0  0  0
    4.8823    3.2925   -6.7548 O   0  5  0  0  0  0  0  0  0  0  0  0
    1.3396   -5.9177    1.9228 O   0  0  0  0  0  0  0  0  0  0  0  0
    2.1411   -4.2912   -2.2296 O   0  0  0  0  0  0  0  0  0  0  0  0
    4.1320    1.5324   -8.0009 O   0  0  0  0  0  0  0  0  0  0  0  0
    2.3693   -1.9544   -4.5704 O   0  0  0  0  0  0  0  0  0  0  0  0
    2.7568    0.8832   -4.2495 O   0  0  0  0  0  0  0  0  0  0  0  0
    5.1834   -9.0368   -0.4860 H   0  0  0  0  0  0  0  0  0  0  0  0
    6.9495   -7.4302    0.1885 H   0  0  0  0  0  0  0  0  0  0  0  0
    2.8008   -8.4546   -0.1995 H   0  0  0  0  0  0  0  0  0  0  0  0
    6.3317   -5.2374    1.1485 H   0  0  0  0  0  0  0  0  0  0  0  0
    4.5930   -0.0162   -0.2341 H   0  0  0  0  0  0  0  0  0  0  0  0
    3.8447    1.5385   -1.9949 H   0  0  0  0  0  0  0  0  0  0  0  0
   -2.8621   -9.1369   -0.4392 H   0  0  0  0  0  0  0  0  0  0  0  0
   -3.1035   -8.5688   -2.1102 H   0  0  0  0  0  0  0  0  0  0  0  0
   -2.8340   -6.1764   -1.4261 H   0  0  0  0  0  0  0  0  0  0  0  0
   -3.4329   -6.7616    0.1454 H   0  0  0  0  0  0  0  0  0  0  0  0
   -0.4294   -8.9943   -1.0466 H   0  0  0  0  0  0  0  0  0  0  0  0
   -0.7518   -7.7243   -2.2523 H   0  0  0  0  0  0  0  0  0  0  0  0
    0.7159   -0.7530   -4.8291 H   0  0  0  0  0  0  0  0  0  0  0  0
    1.4253   -1.4307   -6.3082 H   0  0  0  0  0  0  0  0  0  0  0  0
   -1.1091   -7.4592    0.8359 H   0  0  0  0  0  0  0  0  0  0  0  0
    3.4891    0.0110   -5.9642 H   0  0  0  0  0  0  0  0  0  0  0  0
    3.0980   -1.6444    1.8889 H   0  0  0  0  0  0  0  0  0  0  0  0
    2.0829   -1.6013    0.4030 H   0  0  0  0  0  0  0  0  0  0  0  0
    1.6731   -2.7341    1.7406 H   0  0  0  0  0  0  0  0  0  0  0  0
    3.0696   -4.3590    2.3628 H   0  0  0  0  0  0  0  0  0  0  0  0
    4.7256   -3.8025    2.0828 H   0  0  0  0  0  0  0  0  0  0  0  0
    5.0203   -3.5539   -0.6399 H   0  0  0  0  0  0  0  0  0  0  0  0
    5.1190   -2.1851    0.4767 H   0  0  0  0  0  0  0  0  0  0  0  0
    2.0567    3.2672   -7.1604 H   0  0  0  0  0  0  0  0  0  0  0  0
    2.7220    3.0503   -5.5409 H   0  0  0  0  0  0  0  0  0  0  0  0
   -0.5717   -5.1293    0.4376 H   0  0  0  0  0  0  0  0  0  0  0  0
   -0.6144   -5.3653   -1.3252 H   0  0  0  0  0  0  0  0  0  0  0  0
    1.6403    0.8382   -7.3798 H   0  0  0  0  0  0  0  0  0  0  0  0
    0.8536    1.5060   -5.9531 H   0  0  0  0  0  0  0  0  0  0  0  0
    1.4617   -6.3319   -1.2591 H   0  0  0  0  0  0  0  0  0  0  0  0
    2.7427   -3.8193   -0.0621 H   0  0  0  0  0  0  0  0  0  0  0  0
  1  2  1  0  0  0  0
  1  3  2  0  0  0  0
  2  4  2  0  0  0  0
  3  7  1  0  0  0  0
  4  9  1  0  0  0  0
  5  6  2  0  0  0  0
  5 10  1  0  0  0  0
  6 11  1  0  0  0  0
  7  9  2  0  0  0  0
  7 13  1  0  0  0  0
  8 10  2  0  0  0  0
  8 12  1  0  0  0  0
  8 14  1  0  0  0  0
  9 23  1  0  0  0  0
 10 24  1  0  0  0  0
 11 12  2  0  0  0  0
 11 36  1  0  0  0  0
 12 35  1  0  0  0  0
 13 28  1  0  0  0  0
 13 32  2  0  0  0  0
 14 30  1  0  0  0  0
 14 33  2  0  0  0  0
 15 25  1  0  0  0  0
 15 31  1  0  0  0  0
 15 34  2  0  0  0  0
 16 17  1  0  0  0  0
 16 18  1  0  0  0  0
 17 20  1  0  0  0  0
 18 20  1  0  0  0  0
 19 21  1  0  0  0  0
 19 35  1  0  0  0  0
 20 26  1  0  0  0  0
 21 27  1  0  0  0  0
 21 36  1  0  0  0  0
 22 29  1  0  0  0  0
 23 29  1  0  0  0  0
 24 29  1  0  0  0  0
 25 27  1  0  0  0  0
 26 28  1  0  0  0  0
  1 37  1  0  0  0  0
  2 38  1  0  0  0  0
  3 39  1  0  0  0  0
  4 40  1  0  0  0  0
  5 41  1  0  0  0  0
  6 42  1  0  0  0  0
 16 43  1  0  0  0  0
 16 44  1  0  0  0  0
 17 45  1  0  0  0  0
 17 46  1  0  0  0  0
 18 47  1  0  0  0  0
 18 48  1  0  0  0  0
 19 49  1  0  0  0  0
 19 50  1  0  0  0  0
 20 51  1  0  0  0  0
 21 52  1  0  0  0  0
 22 53  1  0  0  0  0
 22 54  1  0  0  0  0
 22 55  1  0  0  0  0
 23 56  1  0  0  0  0
 23 57  1  0  0  0  0
 24 58  1  0  0  0  0
 24 59  1  0  0  0  0
 25 60  1  0  0  0  0
 25 61  1  0  0  0  0
 26 62  1  0  0  0  0
 26 63  1  0  0  0  0
 27 64  1  0  0  0  0
 27 65  1  0  0  0  0
 28 66  1  0  0  0  0
 29 67  1  0  0  0  0
M  CHG  3  29   1  30  -1  31  -1
M  END
$$$$
