AVX38791_0
  -OEChem-04011315023D

 33 35  0     0  0  0  0  0  0999 V2000
   -9.3769   -0.4893   -1.6611 C   0  0  0  0  0  0  0  0  0  0  0  0
   -9.0661    0.4669   -0.6944 C   0  0  0  0  0  0  0  0  0  0  0  0
   -8.3668   -1.0313   -2.4560 C   0  0  0  0  0  0  0  0  0  0  0  0
   -0.9828    1.8432   -0.5132 C   0  0  0  0  0  0  0  0  0  0  0  0
   -2.1827    2.4837   -0.8519 C   0  0  0  0  0  0  0  0  0  0  0  0
   -7.7453    0.8813   -0.5225 C   0  0  0  0  0  0  0  0  0  0  0  0
   -7.0461   -0.6170   -2.2842 C   0  0  0  0  0  0  0  0  0  0  0  0
   -0.9455    0.4696   -0.2604 C   0  0  0  0  0  0  0  0  0  0  0  0
   -3.3574    1.7156   -0.9335 C   0  0  0  0  0  0  0  0  0  0  0  0
   -6.7353    0.3393   -1.3174 C   0  0  0  0  0  0  0  0  0  0  0  0
   -2.1012   -0.3134   -0.3361 C   0  0  0  0  0  0  0  0  0  0  0  0
   -4.7209    1.9732   -1.2341 C   0  0  0  0  0  0  0  0  0  0  0  0
   -3.2786    0.3511   -0.6747 C   0  0  0  0  0  0  0  0  0  0  0  0
   -5.3737    0.7659   -1.1396 C   0  0  0  0  0  0  0  0  0  0  0  0
   -5.3186    3.2084   -1.5667 C   0  0  0  0  0  0  0  0  0  0  0  0
   -4.9333    4.4546   -1.1255 C   0  0  0  0  0  0  0  0  0  0  0  0
   -2.0796   -1.7564   -0.0743 C   0  0  0  0  0  0  0  0  0  0  0  0
   -5.6449    5.7561   -1.5250 C   0  0  0  0  0  0  0  0  0  0  0  0
   -0.9601   -2.3187    0.2349 O   0  5  0  0  0  0  0  0  0  0  0  0
   -6.6287    5.5858   -2.3044 O   0  5  0  0  0  0  0  0  0  0  0  0
   -3.1806   -2.4238   -0.1607 O   0  0  0  0  0  0  0  0  0  0  0  0
   -5.1886    6.8313   -1.0455 O   0  0  0  0  0  0  0  0  0  0  0  0
   -4.5075   -0.2244   -0.8009 O   0  0  0  0  0  0  0  0  0  0  0  0
  -10.4052   -0.8124   -1.7944 H   0  0  0  0  0  0  0  0  0  0  0  0
   -9.8528    0.8890   -0.0757 H   0  0  0  0  0  0  0  0  0  0  0  0
   -8.6087   -1.7768   -3.2080 H   0  0  0  0  0  0  0  0  0  0  0  0
   -0.0676    2.4257   -0.4467 H   0  0  0  0  0  0  0  0  0  0  0  0
   -2.1936    3.5524   -1.0444 H   0  0  0  0  0  0  0  0  0  0  0  0
   -7.5189    1.6256    0.2371 H   0  0  0  0  0  0  0  0  0  0  0  0
   -6.2703   -1.0482   -2.9124 H   0  0  0  0  0  0  0  0  0  0  0  0
    0.0052    0.0087   -0.0007 H   0  0  0  0  0  0  0  0  0  0  0  0
   -6.2077    3.1929   -2.2387 H   0  0  0  0  0  0  0  0  0  0  0  0
   -4.0861    4.5180   -0.4439 H   0  0  0  0  0  0  0  0  0  0  0  0
  1  2  2  0  0  0  0
  1  3  1  0  0  0  0
  2  6  1  0  0  0  0
  3  7  2  0  0  0  0
  4  5  2  0  0  0  0
  4  8  1  0  0  0  0
  5  9  1  0  0  0  0
  6 10  2  0  0  0  0
  7 10  1  0  0  0  0
  8 11  2  0  0  0  0
  9 12  1  0  0  0  0
  9 13  2  0  0  0  0
 10 14  1  0  0  0  0
 11 13  1  0  0  0  0
 11 17  1  0  0  0  0
 12 14  2  0  0  0  0
 12 15  1  0  0  0  0
 13 23  1  0  0  0  0
 14 23  1  0  0  0  0
 15 16  2  0  0  0  0
 16 18  1  0  0  0  0
 17 19  1  0  0  0  0
 17 21  2  0  0  0  0
 18 20  1  0  0  0  0
 18 22  2  0  0  0  0
  1 24  1  0  0  0  0
  2 25  1  0  0  0  0
  3 26  1  0  0  0  0
  4 27  1  0  0  0  0
  5 28  1  0  0  0  0
  6 29  1  0  0  0  0
  7 30  1  0  0  0  0
  8 31  1  0  0  0  0
 15 32  1  0  0  0  0
 16 33  1  0  0  0  0
M  CHG  2  19  -1  20  -1
M  END
$$$$
