AVX38782_3
  -OEChem-04011315003D

 71 74  0     1  0  0  0  0  0999 V2000
   -6.2396   -2.5576    1.8857 C   0  0  0  0  0  0  0  0  0  0  0  0
   -6.0537   -3.9044    2.1971 C   0  0  0  0  0  0  0  0  0  0  0  0
   -5.4370   -1.9474    0.9217 C   0  0  0  0  0  0  0  0  0  0  0  0
   -5.0652   -4.6411    1.5446 C   0  0  0  0  0  0  0  0  0  0  0  0
    1.1031   -4.2784    1.9688 C   0  0  0  0  0  0  0  0  0  0  0  0
    1.9266   -4.2928    3.0947 C   0  0  0  0  0  0  0  0  0  0  0  0
   -4.4485   -2.6841    0.2692 C   0  0  0  0  0  0  0  0  0  0  0  0
   -0.7811   -3.6485    3.3468 C   0  0  0  0  0  0  0  0  0  0  0  0
   -4.2626   -4.0310    0.5806 C   0  0  0  0  0  0  0  0  0  0  0  0
   -0.2476   -3.9515    2.0939 C   0  0  0  0  0  0  0  0  0  0  0  0
    1.3967   -3.9762    4.3458 C   0  0  0  0  0  0  0  0  0  0  0  0
    0.0390   -3.6755    4.4752 C   0  0  0  0  0  0  0  0  0  0  0  0
   -2.4285   -8.5218   -0.1428 C   0  0  0  0  0  0  0  0  0  0  0  0
   -1.9779   -7.6130    0.7290 C   0  0  0  0  0  0  0  0  0  0  0  0
   -3.6241   -2.0220   -0.7327 C   0  0  0  0  0  0  0  0  0  0  0  0
   -2.2136   -3.3119    3.4764 C   0  0  0  0  0  0  0  0  0  0  0  0
    4.3456   -1.7878    7.2380 C   0  0  0  0  0  0  0  0  0  0  0  0
    1.4184   -0.1943   -1.0504 C   0  0  0  0  0  0  0  0  0  0  0  0
    0.2602   -0.3170   -0.0384 C   0  0  0  0  0  0  0  0  0  0  0  0
    0.3462    0.0635   -2.1297 C   0  0  0  0  0  0  0  0  0  0  0  0
    0.2793   -3.7754    6.7827 C   0  0  0  0  0  0  0  0  0  0  0  0
   -0.6368   -0.7136   -1.2294 C   0  0  0  0  0  0  0  0  0  0  0  0
    1.7130   -3.3156    6.5537 C   0  0  1  0  0  0  0  0  0  0  0  0
   -3.2066   -4.8468   -0.1053 C   0  0  0  0  0  0  0  0  0  0  0  0
   -1.1002   -3.9377    0.8668 C   0  0  0  0  0  0  0  0  0  0  0  0
   -1.2733   -6.3572    0.3340 C   0  0  0  0  0  0  0  0  0  0  0  0
    4.0454   -3.2689    7.4967 C   0  0  0  0  0  0  0  0  0  0  0  0
   -2.0177   -0.1536   -1.1838 C   0  0  0  0  0  0  0  0  0  0  0  0
    2.5969   -3.6414    7.7487 C   0  0  0  0  0  0  0  0  0  0  0  0
   -2.8655   -0.9273   -0.3056 N   0  0  0  0  0  0  0  0  0  0  0  0
   -2.0067   -5.1134    0.7673 N   0  3  2  0  0  0  0  0  0  0  0  0
   -2.5676   -2.0809    3.3697 O   0  5  0  0  0  0  0  0  0  0  0  0
    5.3293   -1.5355    6.4896 O   0  5  0  0  0  0  0  0  0  0  0  0
   -3.6273   -2.4170   -1.9109 O   0  0  0  0  0  0  0  0  0  0  0  0
   -3.0512   -4.2629    3.6911 O   0  0  0  0  0  0  0  0  0  0  0  0
    3.5464   -0.9898    7.8076 O   0  0  0  0  0  0  0  0  0  0  0  0
   -0.5467   -3.3882    5.6798 O   0  0  0  0  0  0  0  0  0  0  0  0
    2.2593   -3.9868    5.4102 O   0  0  0  0  0  0  0  0  0  0  0  0
   -7.0094   -1.9834    2.3935 H   0  0  0  0  0  0  0  0  0  0  0  0
   -6.6788   -4.3790    2.9480 H   0  0  0  0  0  0  0  0  0  0  0  0
   -5.5911   -0.8968    0.6888 H   0  0  0  0  0  0  0  0  0  0  0  0
   -4.9290   -5.6901    1.7943 H   0  0  0  0  0  0  0  0  0  0  0  0
    1.5250   -4.5193    0.9965 H   0  0  0  0  0  0  0  0  0  0  0  0
    2.9795   -4.5386    2.9867 H   0  0  0  0  0  0  0  0  0  0  0  0
   -2.9376   -9.4134    0.2067 H   0  0  0  0  0  0  0  0  0  0  0  0
   -2.3005   -8.3947   -1.2120 H   0  0  0  0  0  0  0  0  0  0  0  0
   -2.1367   -7.7860    1.7903 H   0  0  0  0  0  0  0  0  0  0  0  0
    2.0825    0.6585   -0.8684 H   0  0  0  0  0  0  0  0  0  0  0  0
    2.0249   -1.0928   -1.1890 H   0  0  0  0  0  0  0  0  0  0  0  0
    0.4005   -1.1205    0.6947 H   0  0  0  0  0  0  0  0  0  0  0  0
   -0.0061    0.6012    0.4919 H   0  0  0  0  0  0  0  0  0  0  0  0
    0.1094    1.1132   -2.3225 H   0  0  0  0  0  0  0  0  0  0  0  0
    0.5557   -0.4330   -3.0845 H   0  0  0  0  0  0  0  0  0  0  0  0
    0.2125   -4.8646    6.8996 H   0  0  0  0  0  0  0  0  0  0  0  0
   -0.1373   -3.3107    7.6827 H   0  0  0  0  0  0  0  0  0  0  0  0
   -0.6635   -1.7908   -1.4267 H   0  0  0  0  0  0  0  0  0  0  0  0
    1.7476   -2.2346    6.3615 H   0  0  0  0  0  0  0  0  0  0  0  0
   -3.5970   -5.8236   -0.4104 H   0  0  0  0  0  0  0  0  0  0  0  0
   -2.8364   -4.3401   -1.0031 H   0  0  0  0  0  0  0  0  0  0  0  0
   -1.7417   -3.0479    0.8330 H   0  0  0  0  0  0  0  0  0  0  0  0
   -0.4905   -3.9382   -0.0458 H   0  0  0  0  0  0  0  0  0  0  0  0
   -1.1863   -6.2997   -0.7553 H   0  0  0  0  0  0  0  0  0  0  0  0
   -0.2708   -6.2874    0.7680 H   0  0  0  0  0  0  0  0  0  0  0  0
    4.6209   -3.5452    8.3892 H   0  0  0  0  0  0  0  0  0  0  0  0
    4.4462   -3.8570    6.6616 H   0  0  0  0  0  0  0  0  0  0  0  0
   -2.4696   -0.1659   -2.1802 H   0  0  0  0  0  0  0  0  0  0  0  0
   -2.0067    0.8761   -0.8145 H   0  0  0  0  0  0  0  0  0  0  0  0
    2.1928   -3.1305    8.6210 H   0  0  0  0  0  0  0  0  0  0  0  0
    2.5177   -4.7141    7.9235 H   0  0  0  0  0  0  0  0  0  0  0  0
   -2.9490   -0.6085    0.6542 H   0  0  0  0  0  0  0  0  0  0  0  0
   -2.3747   -5.3072    1.7131 H   0  0  0  0  0  0  0  0  0  0  0  0
  1  2  1  0  0  0  0
  1  3  2  0  0  0  0
  2  4  2  0  0  0  0
  3  7  1  0  0  0  0
  4  9  1  0  0  0  0
  5  6  2  0  0  0  0
  5 10  1  0  0  0  0
  6 11  1  0  0  0  0
  7  9  2  0  0  0  0
  7 15  1  0  0  0  0
  8 10  2  0  0  0  0
  8 12  1  0  0  0  0
  8 16  1  0  0  0  0
  9 24  1  0  0  0  0
 10 25  1  0  0  0  0
 11 12  2  0  0  0  0
 11 38  1  0  0  0  0
 12 37  1  0  0  0  0
 13 14  2  0  0  0  0
 14 26  1  0  0  0  0
 15 30  1  0  0  0  0
 15 34  2  0  0  0  0
 16 32  1  0  0  0  0
 16 35  2  0  0  0  0
 17 27  1  0  0  0  0
 17 33  1  0  0  0  0
 17 36  2  0  0  0  0
 18 19  1  0  0  0  0
 18 20  1  0  0  0  0
 19 22  1  0  0  0  0
 20 22  1  0  0  0  0
 21 23  1  0  0  0  0
 21 37  1  0  0  0  0
 22 28  1  0  0  0  0
 23 29  1  0  0  0  0
 23 38  1  0  0  0  0
 24 31  1  0  0  0  0
 25 31  1  0  0  0  0
 26 31  1  0  0  0  0
 27 29  1  0  0  0  0
 28 30  1  0  0  0  0
  1 39  1  0  0  0  0
  2 40  1  0  0  0  0
  3 41  1  0  0  0  0
  4 42  1  0  0  0  0
  5 43  1  0  0  0  0
  6 44  1  0  0  0  0
 13 45  1  0  0  0  0
 13 46  1  0  0  0  0
 14 47  1  0  0  0  0
 18 48  1  0  0  0  0
 18 49  1  0  0  0  0
 19 50  1  0  0  0  0
 19 51  1  0  0  0  0
 20 52  1  0  0  0  0
 20 53  1  0  0  0  0
 21 54  1  0  0  0  0
 21 55  1  0  0  0  0
 22 56  1  0  0  0  0
 23 57  1  0  0  0  0
 24 58  1  0  0  0  0
 24 59  1  0  0  0  0
 25 60  1  0  0  0  0
 25 61  1  0  0  0  0
 26 62  1  0  0  0  0
 26 63  1  0  0  0  0
 27 64  1  0  0  0  0
 27 65  1  0  0  0  0
 28 66  1  0  0  0  0
 28 67  1  0  0  0  0
 29 68  1  0  0  0  0
 29 69  1  0  0  0  0
 30 70  1  0  0  0  0
 31 71  1  0  0  0  0
M  CHG  3  31   1  32  -1  33  -1
M  END
$$$$
