AVX38781_3
  -OEChem-04011315003D

 77 80  0     1  0  0  0  0  0999 V2000
    1.5314    2.8161   -5.6527 C   0  0  0  0  0  0  0  0  0  0  0  0
    2.0025    2.1172   -6.7641 C   0  0  0  0  0  0  0  0  0  0  0  0
    1.7310    2.3038   -4.3707 C   0  0  0  0  0  0  0  0  0  0  0  0
    2.6730    0.9061   -6.5936 C   0  0  0  0  0  0  0  0  0  0  0  0
    0.5318   -4.6044   -4.7471 C   0  0  0  0  0  0  0  0  0  0  0  0
   -0.5547   -5.3456   -5.2122 C   0  0  0  0  0  0  0  0  0  0  0  0
    2.4015    1.0926   -4.2002 C   0  0  0  0  0  0  0  0  0  0  0  0
   -0.4127   -2.6002   -5.7152 C   0  0  0  0  0  0  0  0  0  0  0  0
    2.8726    0.3937   -5.3117 C   0  0  0  0  0  0  0  0  0  0  0  0
    0.6000   -3.2327   -4.9937 C   0  0  0  0  0  0  0  0  0  0  0  0
   -1.5746   -4.7110   -5.9216 C   0  0  0  0  0  0  0  0  0  0  0  0
   -1.4930   -3.3432   -6.1918 C   0  0  0  0  0  0  0  0  0  0  0  0
    5.5050   -3.0830   -7.5561 C   0  0  0  0  0  0  0  0  0  0  0  0
    4.1913   -3.1206   -7.3075 C   0  0  0  0  0  0  0  0  0  0  0  0
    2.5956    0.5801   -2.8506 C   0  0  0  0  0  0  0  0  0  0  0  0
   -0.3321   -1.1495   -5.9821 C   0  0  0  0  0  0  0  0  0  0  0  0
   -5.8428   -6.4980   -5.2584 C   0  0  0  0  0  0  0  0  0  0  0  0
    0.5480   -4.2600    0.4477 C   0  0  0  0  0  0  0  0  0  0  0  0
    1.9476   -3.7233    0.7310 C   0  0  0  0  0  0  0  0  0  0  0  0
    0.0141   -3.7561   -0.8895 C   0  0  0  0  0  0  0  0  0  0  0  0
    1.9941   -2.1993    0.6480 C   0  0  0  0  0  0  0  0  0  0  0  0
    0.0574   -2.2322   -0.9754 C   0  0  0  0  0  0  0  0  0  0  0  0
   -3.3034   -3.5616   -7.6296 C   0  0  0  0  0  0  0  0  0  0  0  0
    1.4659   -1.6890   -0.6995 C   0  0  0  0  0  0  0  0  0  0  0  0
   -3.7577   -4.6995   -6.7251 C   0  0  1  0  0  0  0  0  0  0  0  0
    3.5964   -0.9113   -5.1573 C   0  0  0  0  0  0  0  0  0  0  0  0
    1.7735   -2.4670   -4.4748 C   0  0  0  0  0  0  0  0  0  0  0  0
    3.6056   -3.2767   -5.9429 C   0  0  0  0  0  0  0  0  0  0  0  0
   -5.1281   -6.8049   -6.5797 C   0  0  0  0  0  0  0  0  0  0  0  0
    1.4723   -0.1619   -0.7381 C   0  0  0  0  0  0  0  0  0  0  0  0
   -4.7375   -5.6183   -7.4400 C   0  0  0  0  0  0  0  0  0  0  0  0
    1.4442    0.3255   -2.0984 N   0  0  0  0  0  0  0  0  0  0  0  0
    2.7530   -2.1027   -5.5340 N   0  3  2  0  0  0  0  0  0  0  0  0
   -0.8539   -0.3386   -5.1323 O   0  5  0  0  0  0  0  0  0  0  0  0
   -5.6562   -7.3145   -4.3151 O   0  5  0  0  0  0  0  0  0  0  0  0
    3.7415    0.4052   -2.4029 O   0  0  0  0  0  0  0  0  0  0  0  0
    0.2564   -0.7538   -7.0540 O   0  0  0  0  0  0  0  0  0  0  0  0
   -6.5323   -5.4377   -5.2763 O   0  0  0  0  0  0  0  0  0  0  0  0
   -2.4455   -2.6699   -6.9103 O   0  0  0  0  0  0  0  0  0  0  0  0
   -2.6253   -5.4877   -6.3338 O   0  0  0  0  0  0  0  0  0  0  0  0
    1.0094    3.7595   -5.7849 H   0  0  0  0  0  0  0  0  0  0  0  0
    1.8466    2.5165   -7.7621 H   0  0  0  0  0  0  0  0  0  0  0  0
    1.3581    2.8575   -3.5128 H   0  0  0  0  0  0  0  0  0  0  0  0
    3.0364    0.3698   -7.4663 H   0  0  0  0  0  0  0  0  0  0  0  0
    1.3189   -5.1048   -4.1890 H   0  0  0  0  0  0  0  0  0  0  0  0
   -0.6048   -6.4115   -5.0069 H   0  0  0  0  0  0  0  0  0  0  0  0
    5.8691   -2.9628   -8.5706 H   0  0  0  0  0  0  0  0  0  0  0  0
    6.2358   -3.1695   -6.7598 H   0  0  0  0  0  0  0  0  0  0  0  0
    3.5006   -3.0241   -8.1412 H   0  0  0  0  0  0  0  0  0  0  0  0
    0.5662   -5.3557    0.4482 H   0  0  0  0  0  0  0  0  0  0  0  0
   -0.1309   -3.9498    1.2515 H   0  0  0  0  0  0  0  0  0  0  0  0
    2.2718   -4.0486    1.7261 H   0  0  0  0  0  0  0  0  0  0  0  0
    2.6555   -4.1496    0.0095 H   0  0  0  0  0  0  0  0  0  0  0  0
    0.6093   -4.1844   -1.7054 H   0  0  0  0  0  0  0  0  0  0  0  0
   -1.0157   -4.1043   -1.0291 H   0  0  0  0  0  0  0  0  0  0  0  0
    1.3986   -1.7759    1.4671 H   0  0  0  0  0  0  0  0  0  0  0  0
    3.0260   -1.8601    0.7983 H   0  0  0  0  0  0  0  0  0  0  0  0
   -0.2774   -1.9163   -1.9707 H   0  0  0  0  0  0  0  0  0  0  0  0
   -0.6535   -1.8106   -0.2531 H   0  0  0  0  0  0  0  0  0  0  0  0
   -2.7606   -3.9299   -8.5094 H   0  0  0  0  0  0  0  0  0  0  0  0
   -4.1621   -2.9787   -7.9794 H   0  0  0  0  0  0  0  0  0  0  0  0
    2.1370   -2.0347   -1.4934 H   0  0  0  0  0  0  0  0  0  0  0  0
   -4.2286   -4.3062   -5.8139 H   0  0  0  0  0  0  0  0  0  0  0  0
    4.4898   -0.9458   -5.7901 H   0  0  0  0  0  0  0  0  0  0  0  0
    3.9152   -1.0666   -4.1210 H   0  0  0  0  0  0  0  0  0  0  0  0
    1.4628   -1.5260   -4.0031 H   0  0  0  0  0  0  0  0  0  0  0  0
    2.3289   -3.0433   -3.7238 H   0  0  0  0  0  0  0  0  0  0  0  0
    4.4023   -3.3536   -5.1966 H   0  0  0  0  0  0  0  0  0  0  0  0
    2.9660   -4.1614   -5.8623 H   0  0  0  0  0  0  0  0  0  0  0  0
   -5.8192   -7.4264   -7.1629 H   0  0  0  0  0  0  0  0  0  0  0  0
   -4.2461   -7.4210   -6.3643 H   0  0  0  0  0  0  0  0  0  0  0  0
    2.3761    0.2299   -0.2617 H   0  0  0  0  0  0  0  0  0  0  0  0
    0.5975    0.2429   -0.2209 H   0  0  0  0  0  0  0  0  0  0  0  0
   -5.6039   -5.0291   -7.7355 H   0  0  0  0  0  0  0  0  0  0  0  0
   -4.2459   -5.9677   -8.3477 H   0  0  0  0  0  0  0  0  0  0  0  0
    0.5348    0.5459   -2.4910 H   0  0  0  0  0  0  0  0  0  0  0  0
    2.2189   -1.8245   -6.3735 H   0  0  0  0  0  0  0  0  0  0  0  0
  1  2  1  0  0  0  0
  1  3  2  0  0  0  0
  2  4  2  0  0  0  0
  3  7  1  0  0  0  0
  4  9  1  0  0  0  0
  5  6  2  0  0  0  0
  5 10  1  0  0  0  0
  6 11  1  0  0  0  0
  7  9  2  0  0  0  0
  7 15  1  0  0  0  0
  8 10  2  0  0  0  0
  8 12  1  0  0  0  0
  8 16  1  0  0  0  0
  9 26  1  0  0  0  0
 10 27  1  0  0  0  0
 11 12  2  0  0  0  0
 11 40  1  0  0  0  0
 12 39  1  0  0  0  0
 13 14  2  0  0  0  0
 14 28  1  0  0  0  0
 15 32  1  0  0  0  0
 15 36  2  0  0  0  0
 16 34  1  0  0  0  0
 16 37  2  0  0  0  0
 17 29  1  0  0  0  0
 17 35  1  0  0  0  0
 17 38  2  0  0  0  0
 18 19  1  0  0  0  0
 18 20  1  0  0  0  0
 19 21  1  0  0  0  0
 20 22  1  0  0  0  0
 21 24  1  0  0  0  0
 22 24  1  0  0  0  0
 23 25  1  0  0  0  0
 23 39  1  0  0  0  0
 24 30  1  0  0  0  0
 25 31  1  0  0  0  0
 25 40  1  0  0  0  0
 26 33  1  0  0  0  0
 27 33  1  0  0  0  0
 28 33  1  0  0  0  0
 29 31  1  0  0  0  0
 30 32  1  0  0  0  0
  1 41  1  0  0  0  0
  2 42  1  0  0  0  0
  3 43  1  0  0  0  0
  4 44  1  0  0  0  0
  5 45  1  0  0  0  0
  6 46  1  0  0  0  0
 13 47  1  0  0  0  0
 13 48  1  0  0  0  0
 14 49  1  0  0  0  0
 18 50  1  0  0  0  0
 18 51  1  0  0  0  0
 19 52  1  0  0  0  0
 19 53  1  0  0  0  0
 20 54  1  0  0  0  0
 20 55  1  0  0  0  0
 21 56  1  0  0  0  0
 21 57  1  0  0  0  0
 22 58  1  0  0  0  0
 22 59  1  0  0  0  0
 23 60  1  0  0  0  0
 23 61  1  0  0  0  0
 24 62  1  0  0  0  0
 25 63  1  0  0  0  0
 26 64  1  0  0  0  0
 26 65  1  0  0  0  0
 27 66  1  0  0  0  0
 27 67  1  0  0  0  0
 28 68  1  0  0  0  0
 28 69  1  0  0  0  0
 29 70  1  0  0  0  0
 29 71  1  0  0  0  0
 30 72  1  0  0  0  0
 30 73  1  0  0  0  0
 31 74  1  0  0  0  0
 31 75  1  0  0  0  0
 32 76  1  0  0  0  0
 33 77  1  0  0  0  0
M  CHG  3  33   1  34  -1  35  -1
M  END
$$$$
