AVX38788_2
  -OEChem-04011315013D

 67 70  0     1  0  0  0  0  0999 V2000
    8.1353   -4.4037    1.8622 C   0  0  0  0  0  0  0  0  0  0  0  0
    7.3897   -3.7570    2.8479 C   0  0  0  0  0  0  0  0  0  0  0  0
    7.4895   -5.0101    0.7847 C   0  0  0  0  0  0  0  0  0  0  0  0
    5.9985   -3.7169    2.7562 C   0  0  0  0  0  0  0  0  0  0  0  0
    0.7167   -5.4855    0.4318 C   0  0  0  0  0  0  0  0  0  0  0  0
    0.1952   -6.5886   -0.2446 C   0  0  0  0  0  0  0  0  0  0  0  0
    6.0983   -4.9700    0.6930 C   0  0  0  0  0  0  0  0  0  0  0  0
    1.4254   -4.5235   -1.6702 C   0  0  0  0  0  0  0  0  0  0  0  0
    5.3527   -4.3234    1.6787 C   0  0  0  0  0  0  0  0  0  0  0  0
    1.3262   -4.4520   -0.2805 C   0  0  0  0  0  0  0  0  0  0  0  0
    0.2817   -6.6539   -1.6355 C   0  0  0  0  0  0  0  0  0  0  0  0
    0.9157   -5.6324   -2.3461 C   0  0  0  0  0  0  0  0  0  0  0  0
    5.4495   -5.6120   -0.4422 C   0  0  0  0  0  0  0  0  0  0  0  0
    2.0797   -3.4316   -2.4198 C   0  0  0  0  0  0  0  0  0  0  0  0
   -3.3033   -8.7975   -3.7338 C   0  0  0  0  0  0  0  0  0  0  0  0
    3.1230  -10.8669   -0.8598 C   0  0  0  0  0  0  0  0  0  0  0  0
    2.8642   -9.6715   -1.8005 C   0  0  0  0  0  0  0  0  0  0  0  0
    4.3218  -10.0708   -0.3033 C   0  0  0  0  0  0  0  0  0  0  0  0
    0.8247   -6.9577   -4.2508 C   0  0  0  0  0  0  0  0  0  0  0  0
    3.5858   -8.7931   -0.7572 C   0  0  0  0  0  0  0  0  0  0  0  0
   -0.4427   -7.5550   -3.6540 C   0  0  1  0  0  0  0  0  0  0  0  0
    3.9156   -1.9057    0.8127 C   0  0  0  0  0  0  0  0  0  0  0  0
    3.8553   -4.2655    1.6054 C   0  0  0  0  0  0  0  0  0  0  0  0
    1.8674   -3.2812    0.4739 C   0  0  0  0  0  0  0  0  0  0  0  0
   -1.9730   -9.5522   -3.6255 C   0  0  0  0  0  0  0  0  0  0  0  0
    4.4661   -7.7367   -1.3331 C   0  0  0  0  0  0  0  0  0  0  0  0
   -0.7635   -8.9069   -4.2744 C   0  0  0  0  0  0  0  0  0  0  0  0
    5.0943   -6.9564   -0.2913 N   0  0  0  0  0  0  0  0  0  0  0  0
    3.3517   -3.2839    0.5781 N   0  3  1  0  0  0  0  0  0  0  0  0
    1.3585   -2.4499   -2.8299 O   0  5  0  0  0  0  0  0  0  0  0  0
   -4.1205   -8.9592   -2.7865 O   0  5  0  0  0  0  0  0  0  0  0  0
    5.2504   -4.9795   -1.4932 O   0  0  0  0  0  0  0  0  0  0  0  0
    3.3450   -3.5051   -2.6335 O   0  0  0  0  0  0  0  0  0  0  0  0
   -3.4112   -8.0838   -4.7725 O   0  0  0  0  0  0  0  0  0  0  0  0
    1.0607   -5.6544   -3.7082 O   0  0  0  0  0  0  0  0  0  0  0  0
   -0.2674   -7.7516   -2.2443 O   0  0  0  0  0  0  0  0  0  0  0  0
    9.2188   -4.4351    1.9330 H   0  0  0  0  0  0  0  0  0  0  0  0
    7.8931   -3.2852    3.6868 H   0  0  0  0  0  0  0  0  0  0  0  0
    8.0818   -5.5118    0.0236 H   0  0  0  0  0  0  0  0  0  0  0  0
    5.4270   -3.2101    3.5293 H   0  0  0  0  0  0  0  0  0  0  0  0
    0.6391   -5.4386    1.5149 H   0  0  0  0  0  0  0  0  0  0  0  0
   -0.2868   -7.3841    0.3171 H   0  0  0  0  0  0  0  0  0  0  0  0
    2.3251  -11.0414   -0.1290 H   0  0  0  0  0  0  0  0  0  0  0  0
    3.3677  -11.8124   -1.3503 H   0  0  0  0  0  0  0  0  0  0  0  0
    3.3935   -9.7432   -2.7582 H   0  0  0  0  0  0  0  0  0  0  0  0
    1.8138   -9.4392   -1.9949 H   0  0  0  0  0  0  0  0  0  0  0  0
    4.5050  -10.1764    0.7694 H   0  0  0  0  0  0  0  0  0  0  0  0
    5.2591  -10.2542   -0.8418 H   0  0  0  0  0  0  0  0  0  0  0  0
    1.7052   -7.5811   -4.0494 H   0  0  0  0  0  0  0  0  0  0  0  0
    0.7272   -6.8477   -5.3361 H   0  0  0  0  0  0  0  0  0  0  0  0
    2.9210   -8.3691    0.0034 H   0  0  0  0  0  0  0  0  0  0  0  0
   -1.2958   -6.8782   -3.7989 H   0  0  0  0  0  0  0  0  0  0  0  0
    3.5333   -1.5470    1.7701 H   0  0  0  0  0  0  0  0  0  0  0  0
    5.0040   -1.9887    0.8308 H   0  0  0  0  0  0  0  0  0  0  0  0
    3.5844   -1.2652   -0.0069 H   0  0  0  0  0  0  0  0  0  0  0  0
    3.4338   -5.2413    1.3411 H   0  0  0  0  0  0  0  0  0  0  0  0
    3.4236   -3.9647    2.5661 H   0  0  0  0  0  0  0  0  0  0  0  0
    1.5920   -2.3326   -0.0043 H   0  0  0  0  0  0  0  0  0  0  0  0
    1.4845   -3.2542    1.5022 H   0  0  0  0  0  0  0  0  0  0  0  0
   -2.1332  -10.5234   -4.1105 H   0  0  0  0  0  0  0  0  0  0  0  0
   -1.7707   -9.7521   -2.5658 H   0  0  0  0  0  0  0  0  0  0  0  0
    3.8850   -7.0523   -1.9584 H   0  0  0  0  0  0  0  0  0  0  0  0
    5.2596   -8.1816   -1.9407 H   0  0  0  0  0  0  0  0  0  0  0  0
   -0.9044   -8.7661   -5.3447 H   0  0  0  0  0  0  0  0  0  0  0  0
    0.1118   -9.5406   -4.1333 H   0  0  0  0  0  0  0  0  0  0  0  0
    5.3374   -7.4418    0.5660 H   0  0  0  0  0  0  0  0  0  0  0  0
    3.7279   -3.5989   -0.3311 H   0  0  0  0  0  0  0  0  0  0  0  0
  1  2  1  0  0  0  0
  1  3  2  0  0  0  0
  2  4  2  0  0  0  0
  3  7  1  0  0  0  0
  4  9  1  0  0  0  0
  5  6  2  0  0  0  0
  5 10  1  0  0  0  0
  6 11  1  0  0  0  0
  7  9  2  0  0  0  0
  7 13  1  0  0  0  0
  8 10  2  0  0  0  0
  8 12  1  0  0  0  0
  8 14  1  0  0  0  0
  9 23  1  0  0  0  0
 10 24  1  0  0  0  0
 11 12  2  0  0  0  0
 11 36  1  0  0  0  0
 12 35  1  0  0  0  0
 13 28  1  0  0  0  0
 13 32  2  0  0  0  0
 14 30  1  0  0  0  0
 14 33  2  0  0  0  0
 15 25  1  0  0  0  0
 15 31  1  0  0  0  0
 15 34  2  0  0  0  0
 16 17  1  0  0  0  0
 16 18  1  0  0  0  0
 17 20  1  0  0  0  0
 18 20  1  0  0  0  0
 19 21  1  0  0  0  0
 19 35  1  0  0  0  0
 20 26  1  0  0  0  0
 21 27  1  0  0  0  0
 21 36  1  0  0  0  0
 22 29  1  0  0  0  0
 23 29  1  0  0  0  0
 24 29  1  0  0  0  0
 25 27  1  0  0  0  0
 26 28  1  0  0  0  0
  1 37  1  0  0  0  0
  2 38  1  0  0  0  0
  3 39  1  0  0  0  0
  4 40  1  0  0  0  0
  5 41  1  0  0  0  0
  6 42  1  0  0  0  0
 16 43  1  0  0  0  0
 16 44  1  0  0  0  0
 17 45  1  0  0  0  0
 17 46  1  0  0  0  0
 18 47  1  0  0  0  0
 18 48  1  0  0  0  0
 19 49  1  0  0  0  0
 19 50  1  0  0  0  0
 20 51  1  0  0  0  0
 21 52  1  0  0  0  0
 22 53  1  0  0  0  0
 22 54  1  0  0  0  0
 22 55  1  0  0  0  0
 23 56  1  0  0  0  0
 23 57  1  0  0  0  0
 24 58  1  0  0  0  0
 24 59  1  0  0  0  0
 25 60  1  0  0  0  0
 25 61  1  0  0  0  0
 26 62  1  0  0  0  0
 26 63  1  0  0  0  0
 27 64  1  0  0  0  0
 27 65  1  0  0  0  0
 28 66  1  0  0  0  0
 29 67  1  0  0  0  0
M  CHG  3  29   1  30  -1  31  -1
M  END
$$$$
