AVX38671_1
  -OEChem-04011314563D

 49 51  0     1  0  0  0  0  0999 V2000
    1.4156    2.8835    1.9937 C   0  0  0  0  0  0  0  0  0  0  0  0
    0.4876    1.9193    2.3869 C   0  0  0  0  0  0  0  0  0  0  0  0
    2.1587    2.7015    0.8273 C   0  0  0  0  0  0  0  0  0  0  0  0
    0.3027    0.7730    1.6139 C   0  0  0  0  0  0  0  0  0  0  0  0
    1.9739    1.5553    0.0543 C   0  0  0  0  0  0  0  0  0  0  0  0
   -1.0852   -1.7100   -5.7535 C   0  0  0  0  0  0  0  0  0  0  0  0
   -1.2235   -2.7001   -6.7292 C   0  0  0  0  0  0  0  0  0  0  0  0
   -0.3571   -0.1004   -7.4290 C   0  0  0  0  0  0  0  0  0  0  0  0
    1.0459    0.5910    0.4475 C   0  0  0  0  0  0  0  0  0  0  0  0
   -0.6546   -0.4176   -6.1014 C   0  0  0  0  0  0  0  0  0  0  0  0
   -0.9234   -2.3611   -8.0325 C   0  0  0  0  0  0  0  0  0  0  0  0
   -0.5020   -1.0961   -8.3731 C   0  0  0  0  0  0  0  0  0  0  0  0
    0.0944    1.2449   -7.8191 C   0  0  0  0  0  0  0  0  0  0  0  0
    1.7761   -1.7788    0.0399 C   0  0  0  0  0  0  0  0  0  0  0  0
    0.0426    0.0064   -2.6485 C   0  0  0  0  0  0  0  0  0  0  0  0
   -0.5774   -2.3026  -10.1677 C   0  0  0  0  0  0  0  0  0  0  0  0
    1.8904   -3.7022    1.6220 C   0  0  0  0  0  0  0  0  0  0  0  0
    1.8035    0.0073   -4.4311 C   0  0  0  0  0  0  0  0  0  0  0  0
   -0.5216    0.6122   -5.0170 C   0  0  0  0  0  0  0  0  0  0  0  0
    0.8463   -0.6505   -0.3903 C   0  0  2  0  0  0  0  0  0  0  0  0
    1.2028   -2.5871    1.0117 N   0  0  0  0  0  0  0  0  0  0  0  0
    1.0674   -0.3942   -1.7956 N   0  0  0  0  0  0  0  0  0  0  0  0
    0.4295    0.2018   -3.9871 N   0  0  0  0  0  0  0  0  0  0  0  0
   -0.7877    2.1232   -8.1495 O   0  5  0  0  0  0  0  0  0  0  0  0
    1.3569    1.4997   -7.8177 O   0  0  0  0  0  0  0  0  0  0  0  0
    2.9133   -1.9128   -0.4079 O   0  0  0  0  0  0  0  0  0  0  0  0
   -1.1157    0.1657   -2.2516 O   0  0  0  0  0  0  0  0  0  0  0  0
   -0.9992   -3.1883   -9.1104 O   0  0  0  0  0  0  0  0  0  0  0  0
   -0.2608   -0.9730   -9.7068 O   0  0  0  0  0  0  0  0  0  0  0  0
    1.5585    3.7766    2.5950 H   0  0  0  0  0  0  0  0  0  0  0  0
   -0.0919    2.0613    3.2945 H   0  0  0  0  0  0  0  0  0  0  0  0
    2.8805    3.4526    0.5203 H   0  0  0  0  0  0  0  0  0  0  0  0
   -0.4224    0.0270    1.9281 H   0  0  0  0  0  0  0  0  0  0  0  0
    2.5574    1.4220   -0.8528 H   0  0  0  0  0  0  0  0  0  0  0  0
   -1.3152   -1.9487   -4.7178 H   0  0  0  0  0  0  0  0  0  0  0  0
   -1.5553   -3.6978   -6.4652 H   0  0  0  0  0  0  0  0  0  0  0  0
    0.3111   -2.7281  -10.6483 H   0  0  0  0  0  0  0  0  0  0  0  0
   -1.3809   -2.2346  -10.9101 H   0  0  0  0  0  0  0  0  0  0  0  0
    1.7062   -4.6155    1.0503 H   0  0  0  0  0  0  0  0  0  0  0  0
    1.5360   -3.8503    2.6456 H   0  0  0  0  0  0  0  0  0  0  0  0
    2.9671   -3.5141    1.6476 H   0  0  0  0  0  0  0  0  0  0  0  0
    1.9527   -1.0279   -4.7488 H   0  0  0  0  0  0  0  0  0  0  0  0
    2.4988    0.2293   -3.6171 H   0  0  0  0  0  0  0  0  0  0  0  0
    2.0261    0.6691   -5.2724 H   0  0  0  0  0  0  0  0  0  0  0  0
   -0.1793    1.5669   -5.4311 H   0  0  0  0  0  0  0  0  0  0  0  0
   -1.4847    0.7959   -4.5292 H   0  0  0  0  0  0  0  0  0  0  0  0
   -0.1912   -0.9990   -0.3191 H   0  0  0  0  0  0  0  0  0  0  0  0
    0.2541   -2.3971    1.3209 H   0  0  0  0  0  0  0  0  0  0  0  0
    2.0003   -0.5102   -2.1729 H   0  0  0  0  0  0  0  0  0  0  0  0
  1  2  2  0  0  0  0
  1  3  1  0  0  0  0
  2  4  1  0  0  0  0
  3  5  2  0  0  0  0
  4  9  2  0  0  0  0
  5  9  1  0  0  0  0
  6  7  2  0  0  0  0
  6 10  1  0  0  0  0
  7 11  1  0  0  0  0
  8 10  2  0  0  0  0
  8 12  1  0  0  0  0
  8 13  1  0  0  0  0
  9 20  1  0  0  0  0
 10 19  1  0  0  0  0
 11 12  2  0  0  0  0
 11 28  1  0  0  0  0
 12 29  1  0  0  0  0
 13 24  1  0  0  0  0
 13 25  2  0  0  0  0
 14 20  1  0  0  0  0
 14 21  1  0  0  0  0
 14 26  2  0  0  0  0
 15 22  1  0  0  0  0
 15 23  1  0  0  0  0
 15 27  2  0  0  0  0
 16 28  1  0  0  0  0
 16 29  1  0  0  0  0
 17 21  1  0  0  0  0
 18 23  1  0  0  0  0
 19 23  1  0  0  0  0
 20 22  1  0  0  0  0
  1 30  1  0  0  0  0
  2 31  1  0  0  0  0
  3 32  1  0  0  0  0
  4 33  1  0  0  0  0
  5 34  1  0  0  0  0
  6 35  1  0  0  0  0
  7 36  1  0  0  0  0
 16 37  1  0  0  0  0
 16 38  1  0  0  0  0
 17 39  1  0  0  0  0
 17 40  1  0  0  0  0
 17 41  1  0  0  0  0
 18 42  1  0  0  0  0
 18 43  1  0  0  0  0
 18 44  1  0  0  0  0
 19 45  1  0  0  0  0
 19 46  1  0  0  0  0
 20 47  1  0  0  0  0
 21 48  1  0  0  0  0
 22 49  1  0  0  0  0
M  CHG  1  24  -1
M  END
$$$$
