AVX38709_0
  -OEChem-04011314563D

 47 50  0     0  0  0  0  0  0999 V2000
    2.2966   -1.4376    4.3437 C   0  0  0  0  0  0  0  0  0  0  0  0
    2.1131    5.5758    2.7007 C   0  0  0  0  0  0  0  0  0  0  0  0
    1.6097   -0.2457    4.5745 C   0  0  0  0  0  0  0  0  0  0  0  0
    2.8979   -1.6677    3.1063 C   0  0  0  0  0  0  0  0  0  0  0  0
    3.3078    4.8958    2.4650 C   0  0  0  0  0  0  0  0  0  0  0  0
    0.8924    4.9444    2.4623 C   0  0  0  0  0  0  0  0  0  0  0  0
   -2.1733   -0.3037   -2.2387 C   0  0  0  0  0  0  0  0  0  0  0  0
   -0.9615    0.0156   -1.6099 C   0  0  0  0  0  0  0  0  0  0  0  0
    1.5240    0.7160    3.5678 C   0  0  0  0  0  0  0  0  0  0  0  0
    2.8122   -0.7060    2.0996 C   0  0  0  0  0  0  0  0  0  0  0  0
    3.2820    3.5842    1.9908 C   0  0  0  0  0  0  0  0  0  0  0  0
    0.8665    3.6329    1.9881 C   0  0  0  0  0  0  0  0  0  0  0  0
   -2.8805    0.7266   -2.8756 C   0  0  0  0  0  0  0  0  0  0  0  0
   -0.4669    1.3240   -1.6149 C   0  0  0  0  0  0  0  0  0  0  0  0
    2.1252    0.4858    2.3304 C   0  0  0  0  0  0  0  0  0  0  0  0
    2.0612    2.9528    1.7523 C   0  0  0  0  0  0  0  0  0  0  0  0
   -1.1613    2.3611   -2.2462 C   0  0  0  0  0  0  0  0  0  0  0  0
   -2.3597    2.0088   -2.8599 C   0  0  0  0  0  0  0  0  0  0  0  0
   -4.0810    0.8663   -3.5986 C   0  0  0  0  0  0  0  0  0  0  0  0
    0.7990    1.5860   -0.9413 C   0  0  0  0  0  0  0  0  0  0  0  0
   -0.6417    3.7585   -2.2568 C   0  0  0  0  0  0  0  0  0  0  0  0
   -5.0637   -0.1779   -3.9334 C   0  0  0  0  0  0  0  0  0  0  0  0
    2.0324    1.5290    1.2373 C   0  0  0  0  0  0  0  0  0  0  0  0
   -4.2912    2.1241   -3.9983 N   0  0  0  0  0  0  0  0  0  0  0  0
    0.8578    1.3019    0.4265 N   0  0  0  0  0  0  0  0  0  0  0  0
    1.7592    2.0594   -1.5711 O   0  0  0  0  0  0  0  0  0  0  0  0
   -3.1999    2.8449   -3.5290 O   0  0  0  0  0  0  0  0  0  0  0  0
    2.3643   -2.1858    5.1282 H   0  0  0  0  0  0  0  0  0  0  0  0
    2.1334    6.5966    3.0713 H   0  0  0  0  0  0  0  0  0  0  0  0
    1.1424   -0.0659    5.5383 H   0  0  0  0  0  0  0  0  0  0  0  0
    3.4336   -2.5951    2.9267 H   0  0  0  0  0  0  0  0  0  0  0  0
    4.2584    5.3869    2.6516 H   0  0  0  0  0  0  0  0  0  0  0  0
   -0.0381    5.4732    2.6468 H   0  0  0  0  0  0  0  0  0  0  0  0
   -2.5457   -1.3235   -2.2271 H   0  0  0  0  0  0  0  0  0  0  0  0
   -0.4066   -0.7777   -1.1130 H   0  0  0  0  0  0  0  0  0  0  0  0
    0.9866    1.6416    3.7565 H   0  0  0  0  0  0  0  0  0  0  0  0
    3.2836   -0.8940    1.1386 H   0  0  0  0  0  0  0  0  0  0  0  0
    4.2179    3.0622    1.8098 H   0  0  0  0  0  0  0  0  0  0  0  0
   -0.0893    3.1490    1.8051 H   0  0  0  0  0  0  0  0  0  0  0  0
   -0.0037    3.9227   -3.1340 H   0  0  0  0  0  0  0  0  0  0  0  0
   -1.4613    4.4887   -2.2817 H   0  0  0  0  0  0  0  0  0  0  0  0
   -0.0538    3.9724   -1.3545 H   0  0  0  0  0  0  0  0  0  0  0  0
   -5.8355   -0.2680   -3.1497 H   0  0  0  0  0  0  0  0  0  0  0  0
   -5.5816    0.0267   -4.8875 H   0  0  0  0  0  0  0  0  0  0  0  0
   -4.5936   -1.1707   -4.0523 H   0  0  0  0  0  0  0  0  0  0  0  0
    2.8735    1.4005    0.5436 H   0  0  0  0  0  0  0  0  0  0  0  0
    0.0237    0.9756    0.9036 H   0  0  0  0  0  0  0  0  0  0  0  0
  1  3  2  0  0  0  0
  1  4  1  0  0  0  0
  2  5  2  0  0  0  0
  2  6  1  0  0  0  0
  3  9  1  0  0  0  0
  4 10  2  0  0  0  0
  5 11  1  0  0  0  0
  6 12  2  0  0  0  0
  7  8  2  0  0  0  0
  7 13  1  0  0  0  0
  8 14  1  0  0  0  0
  9 15  2  0  0  0  0
 10 15  1  0  0  0  0
 11 16  2  0  0  0  0
 12 16  1  0  0  0  0
 13 18  2  0  0  0  0
 13 19  1  0  0  0  0
 14 17  2  0  0  0  0
 14 20  1  0  0  0  0
 15 23  1  0  0  0  0
 16 23  1  0  0  0  0
 17 18  1  0  0  0  0
 17 21  1  0  0  0  0
 18 27  1  0  0  0  0
 19 22  1  0  0  0  0
 19 24  2  0  0  0  0
 20 25  1  0  0  0  0
 20 26  2  0  0  0  0
 23 25  1  0  0  0  0
 24 27  1  0  0  0  0
  1 28  1  0  0  0  0
  2 29  1  0  0  0  0
  3 30  1  0  0  0  0
  4 31  1  0  0  0  0
  5 32  1  0  0  0  0
  6 33  1  0  0  0  0
  7 34  1  0  0  0  0
  8 35  1  0  0  0  0
  9 36  1  0  0  0  0
 10 37  1  0  0  0  0
 11 38  1  0  0  0  0
 12 39  1  0  0  0  0
 21 40  1  0  0  0  0
 21 41  1  0  0  0  0
 21 42  1  0  0  0  0
 22 43  1  0  0  0  0
 22 44  1  0  0  0  0
 22 45  1  0  0  0  0
 23 46  1  0  0  0  0
 25 47  1  0  0  0  0
M  END
$$$$
