AVX38748_7
  -OEChem-04011314583D

 67 70  0     1  0  0  0  0  0999 V2000
    0.8227    2.4972    0.7613 C   0  0  0  0  0  0  0  0  0  0  0  0
   -0.4669    2.5713    0.2131 C   0  0  0  0  0  0  0  0  0  0  0  0
    1.5390    1.2996    0.7338 C   0  0  0  0  0  0  0  0  0  0  0  0
   -1.0594    1.4490   -0.3711 C   0  0  0  0  0  0  0  0  0  0  0  0
   -2.4783   -3.8465   -1.4808 C   0  0  0  0  0  0  0  0  0  0  0  0
   -2.8423   -4.8524   -2.3762 C   0  0  0  0  0  0  0  0  0  0  0  0
   -3.0748   -2.1672   -3.1149 C   0  0  0  0  0  0  0  0  0  0  0  0
    0.9389    0.1885    0.1645 C   0  0  0  0  0  0  0  0  0  0  0  0
   -0.3497    0.2584   -0.3845 C   0  0  0  0  0  0  0  0  0  0  0  0
   -2.5995   -2.5057   -1.8477 C   0  0  0  0  0  0  0  0  0  0  0  0
   -3.3309   -4.5142   -3.6384 C   0  0  0  0  0  0  0  0  0  0  0  0
   -3.4266   -3.1729   -4.0155 C   0  0  0  0  0  0  0  0  0  0  0  0
   -3.1928   -0.7467   -3.5028 C   0  0  0  0  0  0  0  0  0  0  0  0
    0.1187   -3.7704    1.5082 C   0  0  0  0  0  0  0  0  0  0  0  0
   -6.5441   -7.4420   -5.3568 C   0  0  0  0  0  0  0  0  0  0  0  0
    1.5227   -1.1831   -0.0012 C   0  0  0  0  0  0  0  0  0  0  0  0
   -3.8683   -3.8588   -6.1896 C   0  0  0  0  0  0  0  0  0  0  0  0
   -0.7357   -1.0684   -0.9834 C   0  0  1  0  0  0  0  0  0  0  0  0
    0.2556   -2.0223   -0.2630 C   0  0  2  0  0  0  0  0  0  0  0  0
   -4.4956   -5.0983   -5.5655 C   0  0  1  0  0  0  0  0  0  0  0  0
   -2.2053   -1.4449   -0.8546 C   0  0  0  0  0  0  0  0  0  0  0  0
   -0.5652   -4.0428    2.8381 C   0  0  0  0  0  0  0  0  0  0  0  0
   -5.1252   -7.5065   -5.9343 C   0  0  0  0  0  0  0  0  0  0  0  0
   -4.5845   -6.2392   -6.5684 C   0  0  0  0  0  0  0  0  0  0  0  0
   -0.8014   -5.5264    3.1167 C   0  0  0  0  0  0  0  0  0  0  0  0
   -1.7460   -6.1687    2.0964 C   0  0  0  0  0  0  0  0  0  0  0  0
   -1.9338   -7.6508    2.3869 C   0  0  0  0  0  0  0  0  0  0  0  0
   -0.2619   -2.5453    0.9850 N   0  0  0  0  0  0  0  0  0  0  0  0
   -2.8880   -8.2210    1.4056 N   0  3  0  0  0  0  0  0  0  0  0  0
   -4.2969   -0.1340   -3.2628 O   0  5  0  0  0  0  0  0  0  0  0  0
   -6.7858   -8.1941   -4.3733 O   0  5  0  0  0  0  0  0  0  0  0  0
   -2.1870   -0.1779   -4.0657 O   0  0  0  0  0  0  0  0  0  0  0  0
    0.9206   -4.5446    0.9930 O   0  0  0  0  0  0  0  0  0  0  0  0
   -7.3048   -6.6180   -5.9418 O   0  0  0  0  0  0  0  0  0  0  0  0
   -3.8678   -2.7783   -5.2510 O   0  0  0  0  0  0  0  0  0  0  0  0
   -3.6916   -5.5454   -4.4653 O   0  0  0  0  0  0  0  0  0  0  0  0
    1.2689    3.3828    1.2056 H   0  0  0  0  0  0  0  0  0  0  0  0
   -1.0066    3.5142    0.2372 H   0  0  0  0  0  0  0  0  0  0  0  0
    2.5395    1.2462    1.1494 H   0  0  0  0  0  0  0  0  0  0  0  0
   -2.0502    1.5210   -0.8061 H   0  0  0  0  0  0  0  0  0  0  0  0
   -2.1053   -4.1180   -0.4967 H   0  0  0  0  0  0  0  0  0  0  0  0
   -2.7543   -5.8938   -2.0786 H   0  0  0  0  0  0  0  0  0  0  0  0
    2.1846   -1.1908   -0.8739 H   0  0  0  0  0  0  0  0  0  0  0  0
    2.0709   -1.5091    0.8880 H   0  0  0  0  0  0  0  0  0  0  0  0
   -2.8342   -4.0402   -6.5093 H   0  0  0  0  0  0  0  0  0  0  0  0
   -4.4421   -3.5329   -7.0637 H   0  0  0  0  0  0  0  0  0  0  0  0
   -0.4715   -1.0323   -2.0492 H   0  0  0  0  0  0  0  0  0  0  0  0
    0.4807   -2.8974   -0.8823 H   0  0  0  0  0  0  0  0  0  0  0  0
   -5.5003   -4.8734   -5.1824 H   0  0  0  0  0  0  0  0  0  0  0  0
   -2.8281   -0.5541   -0.9974 H   0  0  0  0  0  0  0  0  0  0  0  0
   -2.4080   -1.7972    0.1636 H   0  0  0  0  0  0  0  0  0  0  0  0
   -1.5134   -3.4938    2.8779 H   0  0  0  0  0  0  0  0  0  0  0  0
    0.0856   -3.6345    3.6211 H   0  0  0  0  0  0  0  0  0  0  0  0
   -5.1461   -8.2840   -6.7083 H   0  0  0  0  0  0  0  0  0  0  0  0
   -4.4440   -7.8548   -5.1477 H   0  0  0  0  0  0  0  0  0  0  0  0
   -5.1988   -5.9106   -7.4050 H   0  0  0  0  0  0  0  0  0  0  0  0
   -3.5767   -6.4162   -6.9434 H   0  0  0  0  0  0  0  0  0  0  0  0
    0.1525   -6.0672    3.1341 H   0  0  0  0  0  0  0  0  0  0  0  0
   -1.2418   -5.6252    4.1167 H   0  0  0  0  0  0  0  0  0  0  0  0
   -2.7174   -5.6594    2.1263 H   0  0  0  0  0  0  0  0  0  0  0  0
   -1.3497   -6.0400    1.0823 H   0  0  0  0  0  0  0  0  0  0  0  0
   -2.3588   -7.8236    3.3800 H   0  0  0  0  0  0  0  0  0  0  0  0
   -0.9995   -8.2103    2.2830 H   0  0  0  0  0  0  0  0  0  0  0  0
   -0.9433   -1.9800    1.4797 H   0  0  0  0  0  0  0  0  0  0  0  0
   -3.5830   -7.5227    1.1199 H   0  0  0  0  0  0  0  0  0  0  0  0
   -3.3908   -9.0213    1.8050 H   0  0  0  0  0  0  0  0  0  0  0  0
   -2.3999   -8.5437    0.5629 H   0  0  0  0  0  0  0  0  0  0  0  0
  1  2  1  0  0  0  0
  1  3  2  0  0  0  0
  2  4  2  0  0  0  0
  3  8  1  0  0  0  0
  4  9  1  0  0  0  0
  5  6  2  0  0  0  0
  5 10  1  0  0  0  0
  6 11  1  0  0  0  0
  7 10  2  0  0  0  0
  7 12  1  0  0  0  0
  7 13  1  0  0  0  0
  8  9  2  0  0  0  0
  8 16  1  0  0  0  0
  9 18  1  0  0  0  0
 10 21  1  0  0  0  0
 11 12  2  0  0  0  0
 11 36  1  0  0  0  0
 12 35  1  0  0  0  0
 13 30  1  0  0  0  0
 13 32  2  0  0  0  0
 14 22  1  0  0  0  0
 14 28  1  0  0  0  0
 14 33  2  0  0  0  0
 15 23  1  0  0  0  0
 15 31  1  0  0  0  0
 15 34  2  0  0  0  0
 16 19  1  0  0  0  0
 17 20  1  0  0  0  0
 17 35  1  0  0  0  0
 18 19  1  0  0  0  0
 18 21  1  0  0  0  0
 19 28  1  0  0  0  0
 20 24  1  0  0  0  0
 20 36  1  0  0  0  0
 22 25  1  0  0  0  0
 23 24  1  0  0  0  0
 25 26  1  0  0  0  0
 26 27  1  0  0  0  0
 27 29  1  0  0  0  0
  1 37  1  0  0  0  0
  2 38  1  0  0  0  0
  3 39  1  0  0  0  0
  4 40  1  0  0  0  0
  5 41  1  0  0  0  0
  6 42  1  0  0  0  0
 16 43  1  0  0  0  0
 16 44  1  0  0  0  0
 17 45  1  0  0  0  0
 17 46  1  0  0  0  0
 18 47  1  0  0  0  0
 19 48  1  0  0  0  0
 20 49  1  0  0  0  0
 21 50  1  0  0  0  0
 21 51  1  0  0  0  0
 22 52  1  0  0  0  0
 22 53  1  0  0  0  0
 23 54  1  0  0  0  0
 23 55  1  0  0  0  0
 24 56  1  0  0  0  0
 24 57  1  0  0  0  0
 25 58  1  0  0  0  0
 25 59  1  0  0  0  0
 26 60  1  0  0  0  0
 26 61  1  0  0  0  0
 27 62  1  0  0  0  0
 27 63  1  0  0  0  0
 28 64  1  0  0  0  0
 29 65  1  0  0  0  0
 29 66  1  0  0  0  0
 29 67  1  0  0  0  0
M  CHG  3  29   1  30  -1  31  -1
M  END
$$$$
