AVX38786_3
  -OEChem-04011315013D

 71 74  0     1  0  0  0  0  0999 V2000
    0.1972   -6.1676   -2.6620 C   0  0  0  0  0  0  0  0  0  0  0  0
   -0.9536   -5.7030   -2.0253 C   0  0  0  0  0  0  0  0  0  0  0  0
    0.7277   -5.4647   -3.7438 C   0  0  0  0  0  0  0  0  0  0  0  0
   -1.5741   -4.5358   -2.4704 C   0  0  0  0  0  0  0  0  0  0  0  0
    1.0985   -0.7214   -1.3057 C   0  0  0  0  0  0  0  0  0  0  0  0
    1.9015   -0.1704   -7.1012 C   0  0  0  0  0  0  0  0  0  0  0  0
    2.8702   -0.2433   -4.8891 C   0  0  0  0  0  0  0  0  0  0  0  0
    2.1321    0.0505   -0.7747 C   0  0  0  0  0  0  0  0  0  0  0  0
    1.7076    1.2047   -6.9710 C   0  0  0  0  0  0  0  0  0  0  0  0
    2.6764    1.1319   -4.7589 C   0  0  0  0  0  0  0  0  0  0  0  0
    0.1073   -4.2975   -4.1890 C   0  0  0  0  0  0  0  0  0  0  0  0
   -0.3367    1.2237   -1.3569 C   0  0  0  0  0  0  0  0  0  0  0  0
    2.4827   -0.8945   -6.0602 C   0  0  0  0  0  0  0  0  0  0  0  0
   -1.0436   -3.8330   -3.5523 C   0  0  0  0  0  0  0  0  0  0  0  0
   -0.1324   -0.1345   -1.6013 C   0  0  0  0  0  0  0  0  0  0  0  0
    1.9328    1.4118   -0.5432 C   0  0  0  0  0  0  0  0  0  0  0  0
    0.6922    1.9935   -0.8137 C   0  0  0  0  0  0  0  0  0  0  0  0
    2.0951    1.8559   -5.7999 C   0  0  0  0  0  0  0  0  0  0  0  0
    0.6818   -3.5835   -5.3212 C   0  0  0  0  0  0  0  0  0  0  0  0
   -1.6444    1.8393   -1.6627 C   0  0  0  0  0  0  0  0  0  0  0  0
    5.7161    4.0885   -1.1522 C   0  0  0  0  0  0  0  0  0  0  0  0
    1.4018    3.9155    0.2793 C   0  0  0  0  0  0  0  0  0  0  0  0
    2.8049    3.5368   -0.1757 C   0  0  1  0  0  0  0  0  0  0  0  0
   -1.3292   -0.1769   -4.5299 C   0  0  0  0  0  0  0  0  0  0  0  0
    2.3262    3.8001   -4.4499 C   0  0  0  0  0  0  0  0  0  0  0  0
    2.6919   -2.3746   -6.2004 C   0  0  0  0  0  0  0  0  0  0  0  0
   -1.7316   -2.5809   -4.0106 C   0  0  0  0  0  0  0  0  0  0  0  0
   -1.2157   -0.9880   -2.1764 C   0  0  0  0  0  0  0  0  0  0  0  0
    5.2662    3.7888    0.2825 C   0  0  0  0  0  0  0  0  0  0  0  0
    3.8664    4.2271    0.6682 C   0  0  0  0  0  0  0  0  0  0  0  0
    1.9932   -3.1189   -5.1774 N   0  0  0  0  0  0  0  0  0  0  0  0
   -1.0008   -1.3248   -3.6097 N   0  3  2  0  0  0  0  0  0  0  0  0
   -1.8304    2.3371   -2.8330 O   0  5  0  0  0  0  0  0  0  0  0  0
    6.5437    3.2843   -1.6619 O   0  5  0  0  0  0  0  0  0  0  0  0
    0.0107   -3.3902   -6.3491 O   0  0  0  0  0  0  0  0  0  0  0  0
   -2.5459    1.8537   -0.7467 O   0  0  0  0  0  0  0  0  0  0  0  0
    5.1812    5.1166   -1.6590 O   0  0  0  0  0  0  0  0  0  0  0  0
    0.4248    3.3162   -0.5780 O   0  0  0  0  0  0  0  0  0  0  0  0
    2.9916    2.1213   -0.0406 O   0  0  0  0  0  0  0  0  0  0  0  0
    1.9071    3.1980   -5.6736 O   0  0  0  0  0  0  0  0  0  0  0  0
    0.6809   -7.0764   -2.3155 H   0  0  0  0  0  0  0  0  0  0  0  0
   -1.3664   -6.2509   -1.1831 H   0  0  0  0  0  0  0  0  0  0  0  0
    1.6244   -5.8377   -4.2321 H   0  0  0  0  0  0  0  0  0  0  0  0
   -2.4700   -4.1822   -1.9670 H   0  0  0  0  0  0  0  0  0  0  0  0
    1.2639   -1.7798   -1.4899 H   0  0  0  0  0  0  0  0  0  0  0  0
    1.5965   -0.6695   -8.0170 H   0  0  0  0  0  0  0  0  0  0  0  0
    3.3238   -0.7995   -4.0727 H   0  0  0  0  0  0  0  0  0  0  0  0
    3.0906   -0.4124   -0.5569 H   0  0  0  0  0  0  0  0  0  0  0  0
    1.2545    1.7634   -7.7857 H   0  0  0  0  0  0  0  0  0  0  0  0
    2.9807    1.6333   -3.8445 H   0  0  0  0  0  0  0  0  0  0  0  0
    1.2040    3.5916    1.3091 H   0  0  0  0  0  0  0  0  0  0  0  0
    1.2586    5.0002    0.2308 H   0  0  0  0  0  0  0  0  0  0  0  0
    2.9543    3.7995   -1.2319 H   0  0  0  0  0  0  0  0  0  0  0  0
   -2.3902    0.0512   -4.4137 H   0  0  0  0  0  0  0  0  0  0  0  0
   -0.7103    0.6735   -4.2374 H   0  0  0  0  0  0  0  0  0  0  0  0
   -1.1052   -0.4925   -5.5508 H   0  0  0  0  0  0  0  0  0  0  0  0
    2.1190    4.8726   -4.4809 H   0  0  0  0  0  0  0  0  0  0  0  0
    3.3960    3.6288   -4.3061 H   0  0  0  0  0  0  0  0  0  0  0  0
    1.7726    3.3481   -3.6235 H   0  0  0  0  0  0  0  0  0  0  0  0
    2.3350   -2.7244   -7.1752 H   0  0  0  0  0  0  0  0  0  0  0  0
    3.7548   -2.6293   -6.1327 H   0  0  0  0  0  0  0  0  0  0  0  0
   -1.8237   -2.5565   -5.1017 H   0  0  0  0  0  0  0  0  0  0  0  0
   -2.7397   -2.5065   -3.5888 H   0  0  0  0  0  0  0  0  0  0  0  0
   -1.3007   -1.9434   -1.6429 H   0  0  0  0  0  0  0  0  0  0  0  0
   -2.1924   -0.4909   -2.1179 H   0  0  0  0  0  0  0  0  0  0  0  0
    5.9724    4.3125    0.9391 H   0  0  0  0  0  0  0  0  0  0  0  0
    5.3901    2.7147    0.4697 H   0  0  0  0  0  0  0  0  0  0  0  0
    3.7361    5.3032    0.5666 H   0  0  0  0  0  0  0  0  0  0  0  0
    3.6714    3.9637    1.7075 H   0  0  0  0  0  0  0  0  0  0  0  0
    2.4729   -3.2496   -4.2928 H   0  0  0  0  0  0  0  0  0  0  0  0
    0.0056   -1.5198   -3.7389 H   0  0  0  0  0  0  0  0  0  0  0  0
  1  2  1  0  0  0  0
  1  3  2  0  0  0  0
  2  4  2  0  0  0  0
  3 11  1  0  0  0  0
  4 14  1  0  0  0  0
  5  8  2  0  0  0  0
  5 15  1  0  0  0  0
  6  9  2  0  0  0  0
  6 13  1  0  0  0  0
  7 10  1  0  0  0  0
  7 13  2  0  0  0  0
  8 16  1  0  0  0  0
  9 18  1  0  0  0  0
 10 18  2  0  0  0  0
 11 14  2  0  0  0  0
 11 19  1  0  0  0  0
 12 15  2  0  0  0  0
 12 17  1  0  0  0  0
 12 20  1  0  0  0  0
 13 26  1  0  0  0  0
 14 27  1  0  0  0  0
 15 28  1  0  0  0  0
 16 17  2  0  0  0  0
 16 39  1  0  0  0  0
 17 38  1  0  0  0  0
 18 40  1  0  0  0  0
 19 31  1  0  0  0  0
 19 35  2  0  0  0  0
 20 33  1  0  0  0  0
 20 36  2  0  0  0  0
 21 29  1  0  0  0  0
 21 34  1  0  0  0  0
 21 37  2  0  0  0  0
 22 23  1  0  0  0  0
 22 38  1  0  0  0  0
 23 30  1  0  0  0  0
 23 39  1  0  0  0  0
 24 32  1  0  0  0  0
 25 40  1  0  0  0  0
 26 31  1  0  0  0  0
 27 32  1  0  0  0  0
 28 32  1  0  0  0  0
 29 30  1  0  0  0  0
  1 41  1  0  0  0  0
  2 42  1  0  0  0  0
  3 43  1  0  0  0  0
  4 44  1  0  0  0  0
  5 45  1  0  0  0  0
  6 46  1  0  0  0  0
  7 47  1  0  0  0  0
  8 48  1  0  0  0  0
  9 49  1  0  0  0  0
 10 50  1  0  0  0  0
 22 51  1  0  0  0  0
 22 52  1  0  0  0  0
 23 53  1  0  0  0  0
 24 54  1  0  0  0  0
 24 55  1  0  0  0  0
 24 56  1  0  0  0  0
 25 57  1  0  0  0  0
 25 58  1  0  0  0  0
 25 59  1  0  0  0  0
 26 60  1  0  0  0  0
 26 61  1  0  0  0  0
 27 62  1  0  0  0  0
 27 63  1  0  0  0  0
 28 64  1  0  0  0  0
 28 65  1  0  0  0  0
 29 66  1  0  0  0  0
 29 67  1  0  0  0  0
 30 68  1  0  0  0  0
 30 69  1  0  0  0  0
 31 70  1  0  0  0  0
 32 71  1  0  0  0  0
M  CHG  3  32   1  33  -1  34  -1
M  END
$$$$
