AVX38787_1
  -OEChem-04011315013D

 73 76  0     1  0  0  0  0  0999 V2000
    8.7752   -2.6106   -0.4205 C   0  0  0  0  0  0  0  0  0  0  0  0
    8.7583   -1.4207    0.3071 C   0  0  0  0  0  0  0  0  0  0  0  0
    7.8509   -2.8148   -1.4451 C   0  0  0  0  0  0  0  0  0  0  0  0
    7.8171   -0.4350    0.0102 C   0  0  0  0  0  0  0  0  0  0  0  0
    8.9130    1.6622   -4.1670 C   0  0  0  0  0  0  0  0  0  0  0  0
    9.6022    1.9844   -5.3364 C   0  0  0  0  0  0  0  0  0  0  0  0
    6.9097   -1.8291   -1.7419 C   0  0  0  0  0  0  0  0  0  0  0  0
    7.7888    3.8018   -4.2324 C   0  0  0  0  0  0  0  0  0  0  0  0
    6.8927   -0.6392   -1.0143 C   0  0  0  0  0  0  0  0  0  0  0  0
    8.0118    2.5719   -3.6128 C   0  0  0  0  0  0  0  0  0  0  0  0
    9.3901    3.2199   -5.9488 C   0  0  0  0  0  0  0  0  0  0  0  0
    8.4675    4.1190   -5.4093 C   0  0  0  0  0  0  0  0  0  0  0  0
    5.9556   -2.0686   -2.8163 C   0  0  0  0  0  0  0  0  0  0  0  0
    6.8269    4.7584   -3.6476 C   0  0  0  0  0  0  0  0  0  0  0  0
   12.7785    4.7162  -10.2788 C   0  0  0  0  0  0  0  0  0  0  0  0
    5.3650    0.5633   -8.3396 C   0  0  0  0  0  0  0  0  0  0  0  0
    6.2926    0.8124   -7.1544 C   0  0  0  0  0  0  0  0  0  0  0  0
    4.0910   -0.1592   -7.9127 C   0  0  0  0  0  0  0  0  0  0  0  0
    6.6065   -0.4796   -6.4034 C   0  0  0  0  0  0  0  0  0  0  0  0
    4.4011   -1.4527   -7.1628 C   0  0  0  0  0  0  0  0  0  0  0  0
    8.6602    5.4058   -7.3321 C   0  0  0  0  0  0  0  0  0  0  0  0
    5.3272   -1.2048   -5.9644 C   0  0  0  0  0  0  0  0  0  0  0  0
   10.0867    4.8800   -7.4226 C   0  0  2  0  0  0  0  0  0  0  0  0
    4.9695    1.8278   -3.1635 C   0  0  0  0  0  0  0  0  0  0  0  0
    5.8911    0.4375   -1.3120 C   0  0  0  0  0  0  0  0  0  0  0  0
    7.2971    2.1992   -2.3546 C   0  0  0  0  0  0  0  0  0  0  0  0
   12.0909    4.5851   -8.9147 C   0  0  0  0  0  0  0  0  0  0  0  0
    5.6657   -2.5190   -5.2633 C   0  0  0  0  0  0  0  0  0  0  0  0
   10.6411    5.0227   -8.8324 C   0  0  0  0  0  0  0  0  0  0  0  0
    6.4821   -2.2904   -4.0929 N   0  0  0  0  0  0  0  0  0  0  0  0
    6.2081    1.2081   -2.5682 N   0  3  2  0  0  0  0  0  0  0  0  0
    5.5976    4.6972   -4.0178 O   0  5  0  0  0  0  0  0  0  0  0  0
   13.9838    4.3486  -10.3389 O   0  5  0  0  0  0  0  0  0  0  0  0
    4.7342   -2.0508   -2.5883 O   0  0  0  0  0  0  0  0  0  0  0  0
    7.2561    5.6154   -2.7913 O   0  0  0  0  0  0  0  0  0  0  0  0
   12.0333    5.1729  -11.1931 O   0  0  0  0  0  0  0  0  0  0  0  0
    8.1909    5.3324   -5.9822 O   0  0  0  0  0  0  0  0  0  0  0  0
   10.1112    3.4868   -7.0826 O   0  0  0  0  0  0  0  0  0  0  0  0
    9.5082   -3.3785   -0.1898 H   0  0  0  0  0  0  0  0  0  0  0  0
    9.4781   -1.2623    1.1049 H   0  0  0  0  0  0  0  0  0  0  0  0
    7.8738   -3.7469   -2.0040 H   0  0  0  0  0  0  0  0  0  0  0  0
    7.8128    0.4887    0.5829 H   0  0  0  0  0  0  0  0  0  0  0  0
    9.0892    0.7006   -3.6921 H   0  0  0  0  0  0  0  0  0  0  0  0
   10.3105    1.2745   -5.7548 H   0  0  0  0  0  0  0  0  0  0  0  0
    5.1069    1.5175   -8.8126 H   0  0  0  0  0  0  0  0  0  0  0  0
    5.8895   -0.0371   -9.0931 H   0  0  0  0  0  0  0  0  0  0  0  0
    7.2242    1.2702   -7.5062 H   0  0  0  0  0  0  0  0  0  0  0  0
    5.8243    1.5286   -6.4680 H   0  0  0  0  0  0  0  0  0  0  0  0
    3.4945    0.5006   -7.2706 H   0  0  0  0  0  0  0  0  0  0  0  0
    3.4810   -0.3818   -8.7956 H   0  0  0  0  0  0  0  0  0  0  0  0
    7.2045   -1.1352   -7.0493 H   0  0  0  0  0  0  0  0  0  0  0  0
    7.2247   -0.2480   -5.5277 H   0  0  0  0  0  0  0  0  0  0  0  0
    3.4630   -1.9077   -6.8232 H   0  0  0  0  0  0  0  0  0  0  0  0
    4.8678   -2.1664   -7.8540 H   0  0  0  0  0  0  0  0  0  0  0  0
    8.6140    6.4563   -7.6379 H   0  0  0  0  0  0  0  0  0  0  0  0
    7.9722    4.8356   -7.9696 H   0  0  0  0  0  0  0  0  0  0  0  0
    4.7998   -0.5776   -5.2374 H   0  0  0  0  0  0  0  0  0  0  0  0
   10.7419    5.4122   -6.7195 H   0  0  0  0  0  0  0  0  0  0  0  0
    4.5915    2.5661   -2.4539 H   0  0  0  0  0  0  0  0  0  0  0  0
    5.2520    2.2988   -4.1070 H   0  0  0  0  0  0  0  0  0  0  0  0
    4.2417    1.0304   -3.3253 H   0  0  0  0  0  0  0  0  0  0  0  0
    4.8876    0.0190   -1.4444 H   0  0  0  0  0  0  0  0  0  0  0  0
    5.8430    1.1688   -0.4980 H   0  0  0  0  0  0  0  0  0  0  0  0
    7.9811    1.7547   -1.6203 H   0  0  0  0  0  0  0  0  0  0  0  0
    6.8319    3.0742   -1.8828 H   0  0  0  0  0  0  0  0  0  0  0  0
   12.6676    5.2101   -8.2213 H   0  0  0  0  0  0  0  0  0  0  0  0
   12.1919    3.5478   -8.5715 H   0  0  0  0  0  0  0  0  0  0  0  0
    6.2224   -3.1796   -5.9349 H   0  0  0  0  0  0  0  0  0  0  0  0
    4.7552   -3.0318   -4.9396 H   0  0  0  0  0  0  0  0  0  0  0  0
   10.0061    4.4518   -9.5076 H   0  0  0  0  0  0  0  0  0  0  0  0
   10.5579    6.0745   -9.1047 H   0  0  0  0  0  0  0  0  0  0  0  0
    7.4853   -2.2314   -4.2343 H   0  0  0  0  0  0  0  0  0  0  0  0
    6.5443    0.5157   -3.2574 H   0  0  0  0  0  0  0  0  0  0  0  0
  1  2  1  0  0  0  0
  1  3  2  0  0  0  0
  2  4  2  0  0  0  0
  3  7  1  0  0  0  0
  4  9  1  0  0  0  0
  5  6  2  0  0  0  0
  5 10  1  0  0  0  0
  6 11  1  0  0  0  0
  7  9  2  0  0  0  0
  7 13  1  0  0  0  0
  8 10  2  0  0  0  0
  8 12  1  0  0  0  0
  8 14  1  0  0  0  0
  9 25  1  0  0  0  0
 10 26  1  0  0  0  0
 11 12  2  0  0  0  0
 11 38  1  0  0  0  0
 12 37  1  0  0  0  0
 13 30  1  0  0  0  0
 13 34  2  0  0  0  0
 14 32  1  0  0  0  0
 14 35  2  0  0  0  0
 15 27  1  0  0  0  0
 15 33  1  0  0  0  0
 15 36  2  0  0  0  0
 16 17  1  0  0  0  0
 16 18  1  0  0  0  0
 17 19  1  0  0  0  0
 18 20  1  0  0  0  0
 19 22  1  0  0  0  0
 20 22  1  0  0  0  0
 21 23  1  0  0  0  0
 21 37  1  0  0  0  0
 22 28  1  0  0  0  0
 23 29  1  0  0  0  0
 23 38  1  0  0  0  0
 24 31  1  0  0  0  0
 25 31  1  0  0  0  0
 26 31  1  0  0  0  0
 27 29  1  0  0  0  0
 28 30  1  0  0  0  0
  1 39  1  0  0  0  0
  2 40  1  0  0  0  0
  3 41  1  0  0  0  0
  4 42  1  0  0  0  0
  5 43  1  0  0  0  0
  6 44  1  0  0  0  0
 16 45  1  0  0  0  0
 16 46  1  0  0  0  0
 17 47  1  0  0  0  0
 17 48  1  0  0  0  0
 18 49  1  0  0  0  0
 18 50  1  0  0  0  0
 19 51  1  0  0  0  0
 19 52  1  0  0  0  0
 20 53  1  0  0  0  0
 20 54  1  0  0  0  0
 21 55  1  0  0  0  0
 21 56  1  0  0  0  0
 22 57  1  0  0  0  0
 23 58  1  0  0  0  0
 24 59  1  0  0  0  0
 24 60  1  0  0  0  0
 24 61  1  0  0  0  0
 25 62  1  0  0  0  0
 25 63  1  0  0  0  0
 26 64  1  0  0  0  0
 26 65  1  0  0  0  0
 27 66  1  0  0  0  0
 27 67  1  0  0  0  0
 28 68  1  0  0  0  0
 28 69  1  0  0  0  0
 29 70  1  0  0  0  0
 29 71  1  0  0  0  0
 30 72  1  0  0  0  0
 31 73  1  0  0  0  0
M  CHG  3  31   1  32  -1  33  -1
M  END
$$$$
