AVX38747_6
  -OEChem-04011314573D

 70 73  0     1  0  0  0  0  0999 V2000
   -2.0130    1.1304   -1.6264 C   0  0  0  0  0  0  0  0  0  0  0  0
   -1.6942    2.0339   -0.6017 C   0  0  0  0  0  0  0  0  0  0  0  0
   -1.3986   -0.1214   -1.6859 C   0  0  0  0  0  0  0  0  0  0  0  0
   -0.7561    1.6986    0.3777 C   0  0  0  0  0  0  0  0  0  0  0  0
    2.5000   -0.4642    3.8027 C   0  0  0  0  0  0  0  0  0  0  0  0
    3.3982   -1.1172    4.6470 C   0  0  0  0  0  0  0  0  0  0  0  0
    4.3019    0.0550    2.2765 C   0  0  0  0  0  0  0  0  0  0  0  0
   -0.4605   -0.4407   -0.7175 C   0  0  0  0  0  0  0  0  0  0  0  0
   -0.1380    0.4594    0.3068 C   0  0  0  0  0  0  0  0  0  0  0  0
    2.9503    0.1164    2.6165 C   0  0  0  0  0  0  0  0  0  0  0  0
    4.7476   -1.1910    4.3005 C   0  0  0  0  0  0  0  0  0  0  0  0
    5.2029   -0.5865    3.1268 C   0  0  0  0  0  0  0  0  0  0  0  0
    4.7762    0.6790    1.0243 C   0  0  0  0  0  0  0  0  0  0  0  0
    2.9458   -3.2328    0.7381 C   0  0  0  0  0  0  0  0  0  0  0  0
    6.9203   -5.0993    5.6621 C   0  0  0  0  0  0  0  0  0  0  0  0
    0.2911   -1.7253   -0.5655 C   0  0  0  0  0  0  0  0  0  0  0  0
    7.3843   -0.9621    3.8288 C   0  0  0  0  0  0  0  0  0  0  0  0
    0.8646   -0.1477    1.2506 C   0  0  1  0  0  0  0  0  0  0  0  0
    1.4297   -1.2961    0.3775 C   0  0  1  0  0  0  0  0  0  0  0  0
    6.8357   -2.1850    4.5520 C   0  0  1  0  0  0  0  0  0  0  0  0
    1.9534    0.8064    1.7243 C   0  0  0  0  0  0  0  0  0  0  0  0
    3.2340   -4.3225    1.7579 C   0  0  0  0  0  0  0  0  0  0  0  0
    7.2009   -3.8081    6.4398 C   0  0  0  0  0  0  0  0  0  0  0  0
    7.7779   -2.6459    5.6543 C   0  0  0  0  0  0  0  0  0  0  0  0
    4.3559   -5.2732    1.3430 C   0  0  0  0  0  0  0  0  0  0  0  0
    4.6244   -6.3540    2.3961 C   0  0  0  0  0  0  0  0  0  0  0  0
    5.7695   -7.2745    1.9624 C   0  0  0  0  0  0  0  0  0  0  0  0
    6.0890   -8.3647    2.9778 C   0  0  0  0  0  0  0  0  0  0  0  0
    1.9216   -2.3975    1.1602 N   0  0  0  0  0  0  0  0  0  0  0  0
    4.9112   -9.2362    3.1989 N   0  3  0  0  0  0  0  0  0  0  0  0
    4.7910   -0.0296   -0.0480 O   0  5  0  0  0  0  0  0  0  0  0  0
    5.9678   -5.8126    6.0810 O   0  5  0  0  0  0  0  0  0  0  0  0
    5.1562    1.9065    1.0550 O   0  0  0  0  0  0  0  0  0  0  0  0
    3.5435   -3.1363   -0.3303 O   0  0  0  0  0  0  0  0  0  0  0  0
    7.6851   -5.2845    4.6718 O   0  0  0  0  0  0  0  0  0  0  0  0
    6.5195   -0.5967    2.7484 O   0  0  0  0  0  0  0  0  0  0  0  0
    5.5769   -1.8634    5.1592 O   0  0  0  0  0  0  0  0  0  0  0  0
   -2.7498    1.4064   -2.3760 H   0  0  0  0  0  0  0  0  0  0  0  0
   -2.1879    3.0013   -0.5663 H   0  0  0  0  0  0  0  0  0  0  0  0
   -1.6542   -0.8234   -2.4723 H   0  0  0  0  0  0  0  0  0  0  0  0
   -0.5282    2.3982    1.1746 H   0  0  0  0  0  0  0  0  0  0  0  0
    1.4491   -0.4171    4.0761 H   0  0  0  0  0  0  0  0  0  0  0  0
    3.0373   -1.5753    5.5638 H   0  0  0  0  0  0  0  0  0  0  0  0
   -0.3540   -2.4884   -0.1161 H   0  0  0  0  0  0  0  0  0  0  0  0
    0.6841   -2.0923   -1.5187 H   0  0  0  0  0  0  0  0  0  0  0  0
    7.4830   -0.0996    4.5002 H   0  0  0  0  0  0  0  0  0  0  0  0
    8.3700   -1.1748    3.4016 H   0  0  0  0  0  0  0  0  0  0  0  0
    0.3271   -0.5529    2.1183 H   0  0  0  0  0  0  0  0  0  0  0  0
    2.2739   -0.9327   -0.2262 H   0  0  0  0  0  0  0  0  0  0  0  0
    6.6712   -3.0112    3.8469 H   0  0  0  0  0  0  0  0  0  0  0  0
    1.4981    1.6483    2.2583 H   0  0  0  0  0  0  0  0  0  0  0  0
    2.4673    1.2377    0.8577 H   0  0  0  0  0  0  0  0  0  0  0  0
    3.4652   -3.8622    2.7257 H   0  0  0  0  0  0  0  0  0  0  0  0
    2.3083   -4.8985    1.8791 H   0  0  0  0  0  0  0  0  0  0  0  0
    7.9237   -4.0739    7.2214 H   0  0  0  0  0  0  0  0  0  0  0  0
    6.2784   -3.4992    6.9473 H   0  0  0  0  0  0  0  0  0  0  0  0
    8.7351   -2.8983    5.2012 H   0  0  0  0  0  0  0  0  0  0  0  0
    7.9361   -1.7958    6.3175 H   0  0  0  0  0  0  0  0  0  0  0  0
    4.0674   -5.7594    0.4029 H   0  0  0  0  0  0  0  0  0  0  0  0
    5.2760   -4.7115    1.1420 H   0  0  0  0  0  0  0  0  0  0  0  0
    3.7154   -6.9484    2.5491 H   0  0  0  0  0  0  0  0  0  0  0  0
    4.8670   -5.8824    3.3540 H   0  0  0  0  0  0  0  0  0  0  0  0
    5.4986   -7.7594    1.0164 H   0  0  0  0  0  0  0  0  0  0  0  0
    6.6677   -6.6765    1.7642 H   0  0  0  0  0  0  0  0  0  0  0  0
    6.9089   -9.0093    2.6476 H   0  0  0  0  0  0  0  0  0  0  0  0
    6.3400   -7.9291    3.9494 H   0  0  0  0  0  0  0  0  0  0  0  0
    1.4984   -2.5726    2.0669 H   0  0  0  0  0  0  0  0  0  0  0  0
    4.2018   -9.0887    2.4723 H   0  0  0  0  0  0  0  0  0  0  0  0
    4.4755   -9.0426    4.1079 H   0  0  0  0  0  0  0  0  0  0  0  0
    5.1775  -10.2272    3.1823 H   0  0  0  0  0  0  0  0  0  0  0  0
  1  2  1  0  0  0  0
  1  3  2  0  0  0  0
  2  4  2  0  0  0  0
  3  8  1  0  0  0  0
  4  9  1  0  0  0  0
  5  6  2  0  0  0  0
  5 10  1  0  0  0  0
  6 11  1  0  0  0  0
  7 10  2  0  0  0  0
  7 12  1  0  0  0  0
  7 13  1  0  0  0  0
  8  9  2  0  0  0  0
  8 16  1  0  0  0  0
  9 18  1  0  0  0  0
 10 21  1  0  0  0  0
 11 12  2  0  0  0  0
 11 37  1  0  0  0  0
 12 36  1  0  0  0  0
 13 31  1  0  0  0  0
 13 33  2  0  0  0  0
 14 22  1  0  0  0  0
 14 29  1  0  0  0  0
 14 34  2  0  0  0  0
 15 23  1  0  0  0  0
 15 32  1  0  0  0  0
 15 35  2  0  0  0  0
 16 19  1  0  0  0  0
 17 20  1  0  0  0  0
 17 36  1  0  0  0  0
 18 19  1  0  0  0  0
 18 21  1  0  0  0  0
 19 29  1  0  0  0  0
 20 24  1  0  0  0  0
 20 37  1  0  0  0  0
 22 25  1  0  0  0  0
 23 24  1  0  0  0  0
 25 26  1  0  0  0  0
 26 27  1  0  0  0  0
 27 28  1  0  0  0  0
 28 30  1  0  0  0  0
  1 38  1  0  0  0  0
  2 39  1  0  0  0  0
  3 40  1  0  0  0  0
  4 41  1  0  0  0  0
  5 42  1  0  0  0  0
  6 43  1  0  0  0  0
 16 44  1  0  0  0  0
 16 45  1  0  0  0  0
 17 46  1  0  0  0  0
 17 47  1  0  0  0  0
 18 48  1  0  0  0  0
 19 49  1  0  0  0  0
 20 50  1  0  0  0  0
 21 51  1  0  0  0  0
 21 52  1  0  0  0  0
 22 53  1  0  0  0  0
 22 54  1  0  0  0  0
 23 55  1  0  0  0  0
 23 56  1  0  0  0  0
 24 57  1  0  0  0  0
 24 58  1  0  0  0  0
 25 59  1  0  0  0  0
 25 60  1  0  0  0  0
 26 61  1  0  0  0  0
 26 62  1  0  0  0  0
 27 63  1  0  0  0  0
 27 64  1  0  0  0  0
 28 65  1  0  0  0  0
 28 66  1  0  0  0  0
 29 67  1  0  0  0  0
 30 68  1  0  0  0  0
 30 69  1  0  0  0  0
 30 70  1  0  0  0  0
M  CHG  3  30   1  31  -1  32  -1
M  END
$$$$
