AVX38749_1
  -OEChem-04011314583D

 64 67  0     1  0  0  0  0  0999 V2000
    1.8121    1.8090   -1.1916 C   0  0  0  0  0  0  0  0  0  0  0  0
    1.2445    1.0062   -2.1923 C   0  0  0  0  0  0  0  0  0  0  0  0
    1.4139    1.6723    0.1391 C   0  0  0  0  0  0  0  0  0  0  0  0
    0.2716    0.0548   -1.8762 C   0  0  0  0  0  0  0  0  0  0  0  0
   -3.5155   -2.9249    0.0660 C   0  0  0  0  0  0  0  0  0  0  0  0
   -4.4907   -3.7074    0.6847 C   0  0  0  0  0  0  0  0  0  0  0  0
   -1.7992   -4.4447    0.8346 C   0  0  0  0  0  0  0  0  0  0  0  0
    0.4574    0.7177    0.4451 C   0  0  0  0  0  0  0  0  0  0  0  0
   -0.1106   -0.0875   -0.5510 C   0  0  0  0  0  0  0  0  0  0  0  0
   -2.1712   -3.2900    0.1456 C   0  0  0  0  0  0  0  0  0  0  0  0
   -4.1180   -4.8546    1.3857 C   0  0  0  0  0  0  0  0  0  0  0  0
   -2.7754   -5.2351    1.4419 C   0  0  0  0  0  0  0  0  0  0  0  0
   -0.3758   -4.8329    0.9086 C   0  0  0  0  0  0  0  0  0  0  0  0
   -1.7644   -1.7987    3.6520 C   0  0  0  0  0  0  0  0  0  0  0  0
   -8.0774   -7.5521    4.4708 C   0  0  0  0  0  0  0  0  0  0  0  0
   -0.1388    0.4223    1.7852 C   0  0  0  0  0  0  0  0  0  0  0  0
   -3.4319   -7.2639    2.3599 C   0  0  0  0  0  0  0  0  0  0  0  0
   -1.1518   -1.0021    0.0354 C   0  0  2  0  0  0  0  0  0  0  0  0
   -0.7658   -0.9617    1.5347 C   0  0  2  0  0  0  0  0  0  0  0  0
   -4.6095   -6.5020    2.9535 C   0  0  2  0  0  0  0  0  0  0  0  0
   -1.1435   -2.4184   -0.5254 C   0  0  0  0  0  0  0  0  0  0  0  0
   -3.1095   -1.9457    4.3413 C   0  0  0  0  0  0  0  0  0  0  0  0
   -6.8857   -6.7068    4.0058 C   0  0  0  0  0  0  0  0  0  0  0  0
   -5.7438   -7.4431    3.3319 C   0  0  0  0  0  0  0  0  0  0  0  0
   -3.1557   -3.1473    5.2820 C   0  0  0  0  0  0  0  0  0  0  0  0
   -4.5280   -3.2872    5.9230 C   0  0  0  0  0  0  0  0  0  0  0  0
   -1.8889   -1.2126    2.3971 N   0  0  0  0  0  0  0  0  0  0  0  0
   -4.5118   -4.4363    6.8598 N   0  3  0  0  0  0  0  0  0  0  0  0
    0.1009   -5.5972   -0.0082 O   0  5  0  0  0  0  0  0  0  0  0  0
   -9.0234   -6.9316    5.0290 O   0  5  0  0  0  0  0  0  0  0  0  0
    0.3312   -4.3917    1.8871 O   0  0  0  0  0  0  0  0  0  0  0  0
   -0.7058   -2.1615    4.1576 O   0  0  0  0  0  0  0  0  0  0  0  0
   -7.9662   -8.7868    4.2201 O   0  0  0  0  0  0  0  0  0  0  0  0
   -2.3507   -6.3674    2.0856 O   0  0  0  0  0  0  0  0  0  0  0  0
   -5.1183   -5.5702    1.9892 O   0  0  0  0  0  0  0  0  0  0  0  0
    2.5634    2.5477   -1.4572 H   0  0  0  0  0  0  0  0  0  0  0  0
    1.5604    1.1315   -3.2244 H   0  0  0  0  0  0  0  0  0  0  0  0
    1.8458    2.3010    0.9103 H   0  0  0  0  0  0  0  0  0  0  0  0
   -0.1719   -0.5499   -2.6597 H   0  0  0  0  0  0  0  0  0  0  0  0
   -3.8133   -2.0288   -0.4722 H   0  0  0  0  0  0  0  0  0  0  0  0
   -5.5340   -3.4094    0.6271 H   0  0  0  0  0  0  0  0  0  0  0  0
    0.6167    0.3767    2.5755 H   0  0  0  0  0  0  0  0  0  0  0  0
   -0.8902    1.1782    2.0386 H   0  0  0  0  0  0  0  0  0  0  0  0
   -3.0622   -8.0165    3.0644 H   0  0  0  0  0  0  0  0  0  0  0  0
   -3.7030   -7.7754    1.4274 H   0  0  0  0  0  0  0  0  0  0  0  0
   -2.1407   -0.5507   -0.1204 H   0  0  0  0  0  0  0  0  0  0  0  0
   -0.0191   -1.7378    1.7550 H   0  0  0  0  0  0  0  0  0  0  0  0
   -4.2972   -5.9349    3.8411 H   0  0  0  0  0  0  0  0  0  0  0  0
   -0.1470   -2.8572   -0.4016 H   0  0  0  0  0  0  0  0  0  0  0  0
   -1.3308   -2.3878   -1.6049 H   0  0  0  0  0  0  0  0  0  0  0  0
   -3.8810   -2.0460    3.5684 H   0  0  0  0  0  0  0  0  0  0  0  0
   -3.3100   -1.0242    4.9010 H   0  0  0  0  0  0  0  0  0  0  0  0
   -6.4853   -6.2232    4.9058 H   0  0  0  0  0  0  0  0  0  0  0  0
   -7.2583   -5.9088    3.3514 H   0  0  0  0  0  0  0  0  0  0  0  0
   -6.0704   -7.9618    2.4323 H   0  0  0  0  0  0  0  0  0  0  0  0
   -5.3305   -8.1853    4.0143 H   0  0  0  0  0  0  0  0  0  0  0  0
   -2.3895   -3.0366    6.0599 H   0  0  0  0  0  0  0  0  0  0  0  0
   -2.9077   -4.0606    4.7260 H   0  0  0  0  0  0  0  0  0  0  0  0
   -4.7987   -2.4040    6.5089 H   0  0  0  0  0  0  0  0  0  0  0  0
   -5.3075   -3.4919    5.1832 H   0  0  0  0  0  0  0  0  0  0  0  0
   -2.8193   -0.9807    2.0533 H   0  0  0  0  0  0  0  0  0  0  0  0
   -4.2349   -4.1390    7.8018 H   0  0  0  0  0  0  0  0  0  0  0  0
   -3.8487   -5.1547    6.5483 H   0  0  0  0  0  0  0  0  0  0  0  0
   -5.4391   -4.8702    6.9258 H   0  0  0  0  0  0  0  0  0  0  0  0
  1  2  1  0  0  0  0
  1  3  2  0  0  0  0
  2  4  2  0  0  0  0
  3  8  1  0  0  0  0
  4  9  1  0  0  0  0
  5  6  2  0  0  0  0
  5 10  1  0  0  0  0
  6 11  1  0  0  0  0
  7 10  2  0  0  0  0
  7 12  1  0  0  0  0
  7 13  1  0  0  0  0
  8  9  2  0  0  0  0
  8 16  1  0  0  0  0
  9 18  1  0  0  0  0
 10 21  1  0  0  0  0
 11 12  2  0  0  0  0
 11 35  1  0  0  0  0
 12 34  1  0  0  0  0
 13 29  1  0  0  0  0
 13 31  2  0  0  0  0
 14 22  1  0  0  0  0
 14 27  1  0  0  0  0
 14 32  2  0  0  0  0
 15 23  1  0  0  0  0
 15 30  1  0  0  0  0
 15 33  2  0  0  0  0
 16 19  1  0  0  0  0
 17 20  1  0  0  0  0
 17 34  1  0  0  0  0
 18 19  1  0  0  0  0
 18 21  1  0  0  0  0
 19 27  1  0  0  0  0
 20 24  1  0  0  0  0
 20 35  1  0  0  0  0
 22 25  1  0  0  0  0
 23 24  1  0  0  0  0
 25 26  1  0  0  0  0
 26 28  1  0  0  0  0
  1 36  1  0  0  0  0
  2 37  1  0  0  0  0
  3 38  1  0  0  0  0
  4 39  1  0  0  0  0
  5 40  1  0  0  0  0
  6 41  1  0  0  0  0
 16 42  1  0  0  0  0
 16 43  1  0  0  0  0
 17 44  1  0  0  0  0
 17 45  1  0  0  0  0
 18 46  1  0  0  0  0
 19 47  1  0  0  0  0
 20 48  1  0  0  0  0
 21 49  1  0  0  0  0
 21 50  1  0  0  0  0
 22 51  1  0  0  0  0
 22 52  1  0  0  0  0
 23 53  1  0  0  0  0
 23 54  1  0  0  0  0
 24 55  1  0  0  0  0
 24 56  1  0  0  0  0
 25 57  1  0  0  0  0
 25 58  1  0  0  0  0
 26 59  1  0  0  0  0
 26 60  1  0  0  0  0
 27 61  1  0  0  0  0
 28 62  1  0  0  0  0
 28 63  1  0  0  0  0
 28 64  1  0  0  0  0
M  CHG  3  28   1  29  -1  30  -1
M  END
$$$$
