AVX40915_0
  -OEChem-04011315023D

 46 47  0     1  0  0  0  0  0999 V2000
    6.7171   -3.8237   -1.6466 C   0  0  0  0  0  0  0  0  0  0  0  0
    6.6630   -2.7290   -2.5094 C   0  0  0  0  0  0  0  0  0  0  0  0
    5.5441   -4.4878   -1.2880 C   0  0  0  0  0  0  0  0  0  0  0  0
    5.4358   -2.2984   -3.0135 C   0  0  0  0  0  0  0  0  0  0  0  0
    4.3169   -4.0572   -1.7921 C   0  0  0  0  0  0  0  0  0  0  0  0
    2.0324    0.2126   -5.3271 C   0  0  0  0  0  0  0  0  0  0  0  0
    2.6464    1.1645   -6.1410 C   0  0  0  0  0  0  0  0  0  0  0  0
    2.5175    1.5623   -3.3828 C   0  0  0  0  0  0  0  0  0  0  0  0
    4.2627   -2.9625   -2.6548 C   0  0  0  0  0  0  0  0  0  0  0  0
    1.9679    0.4115   -3.9479 C   0  0  0  0  0  0  0  0  0  0  0  0
    3.1959    2.3153   -5.5759 C   0  0  0  0  0  0  0  0  0  0  0  0
    3.1315    2.5142   -4.1968 C   0  0  0  0  0  0  0  0  0  0  0  0
    2.4532    1.7754   -1.9231 C   0  0  0  0  0  0  0  0  0  0  0  0
    3.5244    5.2325   -7.6409 C   0  0  0  0  0  0  0  0  0  0  0  0
    1.6477   -2.0887   -1.1095 C   0  0  0  0  0  0  0  0  0  0  0  0
    2.8161    4.7759   -3.5327 C   0  0  0  0  0  0  0  0  0  0  0  0
    2.9423   -2.4997   -3.1965 C   0  0  0  0  0  0  0  0  0  0  0  0
    1.3014   -0.6294   -3.0975 C   0  0  0  0  0  0  0  0  0  0  0  0
    2.9828    3.8339   -7.3937 C   0  0  0  0  0  0  0  0  0  0  0  0
    2.2767   -1.4721   -2.3263 N   0  3  1  0  0  0  0  0  0  0  0  0
    1.4379    2.3961   -1.4363 O   0  5  0  0  0  0  0  0  0  0  0  0
    4.7314    5.2823   -8.0109 O   0  5  0  0  0  0  0  0  0  0  0  0
    3.4149    1.3326   -1.1939 O   0  0  0  0  0  0  0  0  0  0  0  0
    2.6978    6.1684   -7.4522 O   0  0  0  0  0  0  0  0  0  0  0  0
    3.6719    3.6424   -3.6525 O   0  0  0  0  0  0  0  0  0  0  0  0
    3.7925    3.2366   -6.3830 O   0  0  0  0  0  0  0  0  0  0  0  0
    7.6730   -4.1597   -1.2552 H   0  0  0  0  0  0  0  0  0  0  0  0
    7.5764   -2.2125   -2.7896 H   0  0  0  0  0  0  0  0  0  0  0  0
    5.5860   -5.3408   -0.6171 H   0  0  0  0  0  0  0  0  0  0  0  0
    5.4031   -1.4445   -3.6850 H   0  0  0  0  0  0  0  0  0  0  0  0
    3.4081   -4.5806   -1.5071 H   0  0  0  0  0  0  0  0  0  0  0  0
    1.6069   -0.6806   -5.7768 H   0  0  0  0  0  0  0  0  0  0  0  0
    2.6931    1.0038   -7.2147 H   0  0  0  0  0  0  0  0  0  0  0  0
    0.8586   -2.7631   -1.4469 H   0  0  0  0  0  0  0  0  0  0  0  0
    2.4257   -2.6329   -0.5706 H   0  0  0  0  0  0  0  0  0  0  0  0
    1.2391   -1.2811   -0.4990 H   0  0  0  0  0  0  0  0  0  0  0  0
    3.3691    5.6052   -3.0850 H   0  0  0  0  0  0  0  0  0  0  0  0
    1.9554    4.5195   -2.9098 H   0  0  0  0  0  0  0  0  0  0  0  0
    2.4698    5.0666   -4.5273 H   0  0  0  0  0  0  0  0  0  0  0  0
    3.0576   -2.0461   -4.1868 H   0  0  0  0  0  0  0  0  0  0  0  0
    2.2394   -3.3343   -3.2916 H   0  0  0  0  0  0  0  0  0  0  0  0
    0.6319   -0.1705   -2.3621 H   0  0  0  0  0  0  0  0  0  0  0  0
    0.7057   -1.3167   -3.7079 H   0  0  0  0  0  0  0  0  0  0  0  0
    3.0452    3.2358   -8.3080 H   0  0  0  0  0  0  0  0  0  0  0  0
    1.9441    3.8609   -7.0504 H   0  0  0  0  0  0  0  0  0  0  0  0
    3.0168   -0.8405   -1.9916 H   0  0  0  0  0  0  0  0  0  0  0  0
  1  2  2  0  0  0  0
  1  3  1  0  0  0  0
  2  4  1  0  0  0  0
  3  5  2  0  0  0  0
  4  9  2  0  0  0  0
  5  9  1  0  0  0  0
  6  7  2  0  0  0  0
  6 10  1  0  0  0  0
  7 11  1  0  0  0  0
  8 10  2  0  0  0  0
  8 12  1  0  0  0  0
  8 13  1  0  0  0  0
  9 17  1  0  0  0  0
 10 18  1  0  0  0  0
 11 12  2  0  0  0  0
 11 26  1  0  0  0  0
 12 25  1  0  0  0  0
 13 21  1  0  0  0  0
 13 23  2  0  0  0  0
 14 19  1  0  0  0  0
 14 22  1  0  0  0  0
 14 24  2  0  0  0  0
 15 20  1  0  0  0  0
 16 25  1  0  0  0  0
 17 20  1  0  0  0  0
 18 20  1  0  0  0  0
 19 26  1  0  0  0  0
  1 27  1  0  0  0  0
  2 28  1  0  0  0  0
  3 29  1  0  0  0  0
  4 30  1  0  0  0  0
  5 31  1  0  0  0  0
  6 32  1  0  0  0  0
  7 33  1  0  0  0  0
 15 34  1  0  0  0  0
 15 35  1  0  0  0  0
 15 36  1  0  0  0  0
 16 37  1  0  0  0  0
 16 38  1  0  0  0  0
 16 39  1  0  0  0  0
 17 40  1  0  0  0  0
 17 41  1  0  0  0  0
 18 42  1  0  0  0  0
 18 43  1  0  0  0  0
 19 44  1  0  0  0  0
 19 45  1  0  0  0  0
 20 46  1  0  0  0  0
M  CHG  3  20   1  21  -1  22  -1
M  END
$$$$
