AVX40916_0
  -OEChem-04011315023D

 46 47  0     1  0  0  0  0  0999 V2000
   -4.0999    0.6461    5.3567 C   0  0  0  0  0  0  0  0  0  0  0  0
   -3.6770    1.1692    6.5786 C   0  0  0  0  0  0  0  0  0  0  0  0
   -2.4099   -1.0738    5.5082 C   0  0  0  0  0  0  0  0  0  0  0  0
   -3.4664   -0.4755    4.8215 C   0  0  0  0  0  0  0  0  0  0  0  0
   -2.6205    0.5709    7.2653 C   0  0  0  0  0  0  0  0  0  0  0  0
   -1.9869   -0.5506    6.7301 C   0  0  0  0  0  0  0  0  0  0  0  0
   -1.7353   -2.2599    4.9438 C   0  0  0  0  0  0  0  0  0  0  0  0
    1.3280   -1.4413    7.9815 C   0  0  0  0  0  0  0  0  0  0  0  0
   -2.0518    0.1357   -0.2528 C   0  0  0  0  0  0  0  0  0  0  0  0
   -2.0214    1.0783    0.9444 C   0  0  0  0  0  0  0  0  0  0  0  0
   -2.0052   -1.3234    0.1919 C   0  0  0  0  0  0  0  0  0  0  0  0
   -3.1131    0.7589    1.9545 C   0  0  0  0  0  0  0  0  0  0  0  0
   -3.0995   -1.6767    1.2057 C   0  0  2  0  0  0  0  0  0  0  0  0
   -4.4938   -1.7131    0.5825 C   0  0  0  0  0  0  0  0  0  0  0  0
   -2.9194    2.2398    8.9330 C   0  0  0  0  0  0  0  0  0  0  0  0
   -3.9429   -1.0162    3.5056 C   0  0  0  0  0  0  0  0  0  0  0  0
    0.3567   -0.6486    7.1219 C   0  0  0  0  0  0  0  0  0  0  0  0
   -3.0159   -0.6925    2.3644 N   0  3  2  0  0  0  0  0  0  0  0  0
   -2.1845   -3.4256    5.2476 O   0  5  0  0  0  0  0  0  0  0  0  0
    1.3089   -2.6911    7.7984 O   0  5  0  0  0  0  0  0  0  0  0  0
   -0.7239   -2.0823    4.1702 O   0  0  0  0  0  0  0  0  0  0  0  0
    2.0369   -0.7502    8.7655 O   0  0  0  0  0  0  0  0  0  0  0  0
   -2.2180    1.0926    8.4577 O   0  0  0  0  0  0  0  0  0  0  0  0
   -0.9543   -1.1292    7.4082 O   0  0  0  0  0  0  0  0  0  0  0  0
   -4.9241    1.1191    4.8294 H   0  0  0  0  0  0  0  0  0  0  0  0
   -4.1748    2.0430    6.9903 H   0  0  0  0  0  0  0  0  0  0  0  0
   -2.9559    0.3191   -0.8448 H   0  0  0  0  0  0  0  0  0  0  0  0
   -1.1989    0.3470   -0.9079 H   0  0  0  0  0  0  0  0  0  0  0  0
   -1.0412    1.0105    1.4331 H   0  0  0  0  0  0  0  0  0  0  0  0
   -2.1311    2.1131    0.6010 H   0  0  0  0  0  0  0  0  0  0  0  0
   -2.0801   -1.9770   -0.6853 H   0  0  0  0  0  0  0  0  0  0  0  0
   -1.0243   -1.5230    0.6431 H   0  0  0  0  0  0  0  0  0  0  0  0
   -2.9819    1.3630    2.8587 H   0  0  0  0  0  0  0  0  0  0  0  0
   -4.1151    0.9344    1.5512 H   0  0  0  0  0  0  0  0  0  0  0  0
   -2.8752   -2.6627    1.6307 H   0  0  0  0  0  0  0  0  0  0  0  0
   -4.7324   -0.7406    0.1554 H   0  0  0  0  0  0  0  0  0  0  0  0
   -5.2317   -1.9592    1.3441 H   0  0  0  0  0  0  0  0  0  0  0  0
   -4.5269   -2.4660   -0.2032 H   0  0  0  0  0  0  0  0  0  0  0  0
   -2.4990    2.5536    9.8915 H   0  0  0  0  0  0  0  0  0  0  0  0
   -3.9788    1.9979    9.0494 H   0  0  0  0  0  0  0  0  0  0  0  0
   -2.8101    3.0492    8.2073 H   0  0  0  0  0  0  0  0  0  0  0  0
   -4.0354   -2.1071    3.5359 H   0  0  0  0  0  0  0  0  0  0  0  0
   -4.9232   -0.6054    3.2408 H   0  0  0  0  0  0  0  0  0  0  0  0
    0.5755   -0.8036    6.0610 H   0  0  0  0  0  0  0  0  0  0  0  0
    0.4027    0.4212    7.3473 H   0  0  0  0  0  0  0  0  0  0  0  0
   -2.0702   -0.8107    2.7533 H   0  0  0  0  0  0  0  0  0  0  0  0
  1  2  2  0  0  0  0
  1  4  1  0  0  0  0
  2  5  1  0  0  0  0
  3  4  2  0  0  0  0
  3  6  1  0  0  0  0
  3  7  1  0  0  0  0
  4 16  1  0  0  0  0
  5  6  2  0  0  0  0
  5 23  1  0  0  0  0
  6 24  1  0  0  0  0
  7 19  1  0  0  0  0
  7 21  2  0  0  0  0
  8 17  1  0  0  0  0
  8 20  1  0  0  0  0
  8 22  2  0  0  0  0
  9 10  1  0  0  0  0
  9 11  1  0  0  0  0
 10 12  1  0  0  0  0
 11 13  1  0  0  0  0
 12 18  1  0  0  0  0
 13 14  1  0  0  0  0
 13 18  1  0  0  0  0
 15 23  1  0  0  0  0
 16 18  1  0  0  0  0
 17 24  1  0  0  0  0
  1 25  1  0  0  0  0
  2 26  1  0  0  0  0
  9 27  1  0  0  0  0
  9 28  1  0  0  0  0
 10 29  1  0  0  0  0
 10 30  1  0  0  0  0
 11 31  1  0  0  0  0
 11 32  1  0  0  0  0
 12 33  1  0  0  0  0
 12 34  1  0  0  0  0
 13 35  1  0  0  0  0
 14 36  1  0  0  0  0
 14 37  1  0  0  0  0
 14 38  1  0  0  0  0
 15 39  1  0  0  0  0
 15 40  1  0  0  0  0
 15 41  1  0  0  0  0
 16 42  1  0  0  0  0
 16 43  1  0  0  0  0
 17 44  1  0  0  0  0
 17 45  1  0  0  0  0
 18 46  1  0  0  0  0
M  CHG  3  18   1  19  -1  20  -1
M  END
$$$$
