AVX40989_0
  -OEChem-04011315033D

 83 87  0     1  0  0  0  0  0999 V2000
   -0.9919   -6.5841   -0.4754 C   0  0  0  0  0  0  0  0  0  0  0  0
   -0.4220   -5.8581    0.5705 C   0  0  0  0  0  0  0  0  0  0  0  0
   -0.8897   -6.1168   -1.7857 C   0  0  0  0  0  0  0  0  0  0  0  0
    1.5446   10.6812    5.7595 C   0  0  0  0  0  0  0  0  0  0  0  0
    2.1533   11.3128   -2.8128 C   0  0  0  0  0  0  0  0  0  0  0  0
    0.9265    9.4525    5.9914 C   0  0  0  0  0  0  0  0  0  0  0  0
    0.2500   -4.6648    0.3061 C   0  0  0  0  0  0  0  0  0  0  0  0
   -0.2176   -4.9234   -2.0501 C   0  0  0  0  0  0  0  0  0  0  0  0
    1.1738   11.4514    4.6572 C   0  0  0  0  0  0  0  0  0  0  0  0
    1.8134    9.9926   -3.1080 C   0  0  0  0  0  0  0  0  0  0  0  0
    1.5661   11.9574   -1.7240 C   0  0  0  0  0  0  0  0  0  0  0  0
   -0.8974    4.0401   -2.1255 C   0  0  0  0  0  0  0  0  0  0  0  0
   -0.2509    5.2462   -2.3958 C   0  0  0  0  0  0  0  0  0  0  0  0
   -0.4330    9.7641    4.0187 C   0  0  0  0  0  0  0  0  0  0  0  0
    0.2990    9.9616   -1.2258 C   0  0  0  0  0  0  0  0  0  0  0  0
   -0.0623    8.9939    5.1210 C   0  0  0  0  0  0  0  0  0  0  0  0
    0.0181    4.0503    0.1102 C   0  0  0  0  0  0  0  0  0  0  0  0
    0.3522   -4.1974   -1.0042 C   0  0  0  0  0  0  0  0  0  0  0  0
    0.1851   10.9928    3.7868 C   0  0  0  0  0  0  0  0  0  0  0  0
    0.8862    9.3170   -2.3146 C   0  0  0  0  0  0  0  0  0  0  0  0
    0.6389   11.2818   -0.9306 C   0  0  0  0  0  0  0  0  0  0  0  0
   -0.7630    3.4422   -0.8725 C   0  0  0  0  0  0  0  0  0  0  0  0
    0.5302    5.8543   -1.4131 C   0  0  0  0  0  0  0  0  0  0  0  0
    0.6647    5.2563   -0.1600 C   0  0  0  0  0  0  0  0  0  0  0  0
   -0.7146    7.6974    5.3651 C   0  0  0  0  0  0  0  0  0  0  0  0
    0.1647    3.4194    1.4371 C   0  0  0  0  0  0  0  0  0  0  0  0
   -0.2566    0.6003   -2.0060 C   0  0  0  0  0  0  0  0  0  0  0  0
   -1.1068   -0.1157    0.1415 C   0  0  0  0  0  0  0  0  0  0  0  0
    0.7357   -0.5573   -2.0386 C   0  0  0  0  0  0  0  0  0  0  0  0
   -0.1392   -1.2941    0.1712 C   0  0  0  0  0  0  0  0  0  0  0  0
    0.7763    6.7811    1.6617 C   0  0  0  0  0  0  0  0  0  0  0  0
   -1.4706    2.1442   -0.6103 C   0  0  0  0  0  0  0  0  0  0  0  0
    1.0747   -2.9138   -1.2893 C   0  0  0  0  0  0  0  0  0  0  0  0
   -0.2137   11.8211    2.6008 C   0  0  0  0  0  0  0  0  0  0  0  0
    0.5223    7.8964   -2.6319 C   0  0  0  0  0  0  0  0  0  0  0  0
    0.0105   11.9715    0.2332 C   0  0  1  0  0  0  0  0  0  0  0  0
   -0.5513    1.0069   -0.6256 N   0  0  0  0  0  0  0  0  0  0  0  0
    0.1769   -1.7102   -1.2434 N   0  3  0  0  0  0  0  0  0  0  0  0
   -1.6247    7.2975    4.5462 O   0  5  0  0  0  0  0  0  0  0  0  0
   -0.6787    3.7226    2.3589 O   0  5  0  0  0  0  0  0  0  0  0  0
   -0.3542    7.0053    6.3897 O   0  0  0  0  0  0  0  0  0  0  0  0
    1.1303    2.5908    1.6210 O   0  0  0  0  0  0  0  0  0  0  0  0
   -1.4027   12.0400    0.0220 O   0  0  0  0  0  0  0  0  0  0  0  0
    1.4308    5.8578    0.7951 O   0  0  0  0  0  0  0  0  0  0  0  0
    1.1560    7.0321   -1.6909 O   0  0  0  0  0  0  0  0  0  0  0  0
    0.3395   11.2447    1.4254 O   0  0  0  0  0  0  0  0  0  0  0  0
   -1.5140   -7.5140   -0.2695 H   0  0  0  0  0  0  0  0  0  0  0  0
   -0.5006   -6.2224    1.5907 H   0  0  0  0  0  0  0  0  0  0  0  0
   -1.3323   -6.6823   -2.6003 H   0  0  0  0  0  0  0  0  0  0  0  0
    2.3143   11.0381    6.4375 H   0  0  0  0  0  0  0  0  0  0  0  0
    2.8755   11.8387   -3.4306 H   0  0  0  0  0  0  0  0  0  0  0  0
    1.2226    8.8604    6.8536 H   0  0  0  0  0  0  0  0  0  0  0  0
    0.6908   -4.1056    1.1273 H   0  0  0  0  0  0  0  0  0  0  0  0
   -0.1431   -4.5670   -3.0741 H   0  0  0  0  0  0  0  0  0  0  0  0
    1.6607   12.4075    4.4844 H   0  0  0  0  0  0  0  0  0  0  0  0
    2.2766    9.4982   -3.9581 H   0  0  0  0  0  0  0  0  0  0  0  0
    1.8363   12.9864   -1.5019 H   0  0  0  0  0  0  0  0  0  0  0  0
   -1.5040    3.5742   -2.8977 H   0  0  0  0  0  0  0  0  0  0  0  0
   -0.3598    5.7069   -3.3739 H   0  0  0  0  0  0  0  0  0  0  0  0
   -1.2039    9.4079    3.3392 H   0  0  0  0  0  0  0  0  0  0  0  0
   -0.4232    9.4352   -0.6063 H   0  0  0  0  0  0  0  0  0  0  0  0
    0.1849    1.4418   -2.5534 H   0  0  0  0  0  0  0  0  0  0  0  0
   -1.1763    0.3160   -2.5348 H   0  0  0  0  0  0  0  0  0  0  0  0
   -2.0700   -0.4367   -0.2773 H   0  0  0  0  0  0  0  0  0  0  0  0
   -1.2910    0.1985    1.1760 H   0  0  0  0  0  0  0  0  0  0  0  0
    0.8864   -0.9092   -3.0645 H   0  0  0  0  0  0  0  0  0  0  0  0
    1.7020   -0.2835   -1.5993 H   0  0  0  0  0  0  0  0  0  0  0  0
    0.8055   -1.0377    0.6647 H   0  0  0  0  0  0  0  0  0  0  0  0
   -0.5935   -2.1553    0.6722 H   0  0  0  0  0  0  0  0  0  0  0  0
    1.4982    7.1877    2.3742 H   0  0  0  0  0  0  0  0  0  0  0  0
   -0.0309    6.2724    2.1947 H   0  0  0  0  0  0  0  0  0  0  0  0
    0.3594    7.5952    1.0641 H   0  0  0  0  0  0  0  0  0  0  0  0
   -1.9655    2.1648    0.3668 H   0  0  0  0  0  0  0  0  0  0  0  0
   -2.2443    1.9595   -1.3629 H   0  0  0  0  0  0  0  0  0  0  0  0
    1.8732   -2.7385   -0.5603 H   0  0  0  0  0  0  0  0  0  0  0  0
    1.5298   -2.9289   -2.2855 H   0  0  0  0  0  0  0  0  0  0  0  0
   -1.3036   11.8616    2.4999 H   0  0  0  0  0  0  0  0  0  0  0  0
    0.1531   12.8480    2.7042 H   0  0  0  0  0  0  0  0  0  0  0  0
   -0.5618    7.7485   -2.5790 H   0  0  0  0  0  0  0  0  0  0  0  0
    0.8494    7.6288   -3.6425 H   0  0  0  0  0  0  0  0  0  0  0  0
    0.3895   13.0043    0.3218 H   0  0  0  0  0  0  0  0  0  0  0  0
   -0.7095   -1.9883   -1.6869 H   0  0  0  0  0  0  0  0  0  0  0  0
   -1.7374   11.1307   -0.0572 H   0  0  0  0  0  0  0  0  0  0  0  0
  1  2  2  0  0  0  0
  1  3  1  0  0  0  0
  2  7  1  0  0  0  0
  3  8  2  0  0  0  0
  4  6  1  0  0  0  0
  4  9  2  0  0  0  0
  5 10  2  0  0  0  0
  5 11  1  0  0  0  0
  6 16  2  0  0  0  0
  7 18  2  0  0  0  0
  8 18  1  0  0  0  0
  9 19  1  0  0  0  0
 10 20  1  0  0  0  0
 11 21  2  0  0  0  0
 12 13  2  0  0  0  0
 12 22  1  0  0  0  0
 13 23  1  0  0  0  0
 14 16  1  0  0  0  0
 14 19  2  0  0  0  0
 15 20  2  0  0  0  0
 15 21  1  0  0  0  0
 16 25  1  0  0  0  0
 17 22  2  0  0  0  0
 17 24  1  0  0  0  0
 17 26  1  0  0  0  0
 18 33  1  0  0  0  0
 19 34  1  0  0  0  0
 20 35  1  0  0  0  0
 21 36  1  0  0  0  0
 22 32  1  0  0  0  0
 23 24  2  0  0  0  0
 23 45  1  0  0  0  0
 24 44  1  0  0  0  0
 25 39  1  0  0  0  0
 25 41  2  0  0  0  0
 26 40  1  0  0  0  0
 26 42  2  0  0  0  0
 27 29  1  0  0  0  0
 27 37  1  0  0  0  0
 28 30  1  0  0  0  0
 28 37  1  0  0  0  0
 29 38  1  0  0  0  0
 30 38  1  0  0  0  0
 31 44  1  0  0  0  0
 32 37  1  0  0  0  0
 33 38  1  0  0  0  0
 34 46  1  0  0  0  0
 35 45  1  0  0  0  0
 36 43  1  0  0  0  0
 36 46  1  0  0  0  0
  1 47  1  0  0  0  0
  2 48  1  0  0  0  0
  3 49  1  0  0  0  0
  4 50  1  0  0  0  0
  5 51  1  0  0  0  0
  6 52  1  0  0  0  0
  7 53  1  0  0  0  0
  8 54  1  0  0  0  0
  9 55  1  0  0  0  0
 10 56  1  0  0  0  0
 11 57  1  0  0  0  0
 12 58  1  0  0  0  0
 13 59  1  0  0  0  0
 14 60  1  0  0  0  0
 15 61  1  0  0  0  0
 27 62  1  0  0  0  0
 27 63  1  0  0  0  0
 28 64  1  0  0  0  0
 28 65  1  0  0  0  0
 29 66  1  0  0  0  0
 29 67  1  0  0  0  0
 30 68  1  0  0  0  0
 30 69  1  0  0  0  0
 31 70  1  0  0  0  0
 31 71  1  0  0  0  0
 31 72  1  0  0  0  0
 32 73  1  0  0  0  0
 32 74  1  0  0  0  0
 33 75  1  0  0  0  0
 33 76  1  0  0  0  0
 34 77  1  0  0  0  0
 34 78  1  0  0  0  0
 35 79  1  0  0  0  0
 35 80  1  0  0  0  0
 36 81  1  0  0  0  0
 38 82  1  0  0  0  0
 43 83  1  0  0  0  0
M  CHG  3  38   1  39  -1  40  -1
M  END
$$$$
