AVX40869_0
  -OEChem-04011315023D

 38 41  0     0  0  0  0  0  0999 V2000
   -0.0958    5.4497    0.2789 C   0  0  0  0  0  0  0  0  0  0  0  0
    3.1040    5.8302   -2.3426 C   0  0  0  0  0  0  0  0  0  0  0  0
    4.4712    6.1128   -2.3920 C   0  0  0  0  0  0  0  0  0  0  0  0
   -0.8517    5.5565    1.4488 C   0  0  0  0  0  0  0  0  0  0  0  0
    5.0209    3.8335   -1.7285 C   0  0  0  0  0  0  0  0  0  0  0  0
   -1.9296    4.3172   -0.8536 C   0  0  0  0  0  0  0  0  0  0  0  0
    3.6657    3.5635   -1.6821 C   0  0  0  0  0  0  0  0  0  0  0  0
   -0.6317    4.8337   -0.8657 C   0  0  0  0  0  0  0  0  0  0  0  0
    2.7260    4.5482   -1.9849 C   0  0  0  0  0  0  0  0  0  0  0  0
    5.4218    5.1228   -2.0876 C   0  0  0  0  0  0  0  0  0  0  0  0
   -2.1304    5.0383    1.4345 C   0  0  0  0  0  0  0  0  0  0  0  0
   -2.6550    4.4354    0.3141 C   0  0  0  0  0  0  0  0  0  0  0  0
    1.4901    2.6614   -1.4749 C   0  0  0  0  0  0  0  0  0  0  0  0
   -2.5139    3.6687   -2.0385 C   0  0  0  0  0  0  0  0  0  0  0  0
    2.9684    2.2879   -1.3337 C   0  0  0  0  0  0  0  0  0  0  0  0
   -4.1448    4.3878    1.8825 C   0  0  0  0  0  0  0  0  0  0  0  0
    0.2199    4.7432   -2.0990 C   0  0  0  0  0  0  0  0  0  0  0  0
    1.4392    4.0084   -1.8607 N   0  0  0  0  0  0  0  0  0  0  0  0
    6.8310    5.4446   -2.1461 N   0  3  0  0  0  0  0  0  0  0  0  0
   -3.1602    4.3922   -2.8857 O   0  5  0  0  0  0  0  0  0  0  0  0
    0.5589    1.8950   -1.2771 O   0  0  0  0  0  0  0  0  0  0  0  0
   -2.3601    2.3989   -2.1895 O   0  0  0  0  0  0  0  0  0  0  0  0
   -3.0087    5.0510    2.4738 O   0  0  0  0  0  0  0  0  0  0  0  0
   -3.9273    3.9949    0.5118 O   0  0  0  0  0  0  0  0  0  0  0  0
    0.9153    5.8497    0.2611 H   0  0  0  0  0  0  0  0  0  0  0  0
    2.3778    6.5995   -2.5797 H   0  0  0  0  0  0  0  0  0  0  0  0
    4.7955    7.1129   -2.6707 H   0  0  0  0  0  0  0  0  0  0  0  0
   -0.4423    6.0307    2.3335 H   0  0  0  0  0  0  0  0  0  0  0  0
    5.7481    3.0634   -1.4921 H   0  0  0  0  0  0  0  0  0  0  0  0
    3.2131    1.4922   -2.0421 H   0  0  0  0  0  0  0  0  0  0  0  0
    3.1727    1.9895   -0.3021 H   0  0  0  0  0  0  0  0  0  0  0  0
   -4.3742    3.4925    2.4718 H   0  0  0  0  0  0  0  0  0  0  0  0
   -5.0058    5.0650    1.9210 H   0  0  0  0  0  0  0  0  0  0  0  0
   -0.3235    4.2420   -2.9074 H   0  0  0  0  0  0  0  0  0  0  0  0
    0.4947    5.7396   -2.4607 H   0  0  0  0  0  0  0  0  0  0  0  0
    7.3407    4.7070   -2.6508 H   0  0  0  0  0  0  0  0  0  0  0  0
    6.9898    6.3384   -2.6308 H   0  0  0  0  0  0  0  0  0  0  0  0
    7.2185    5.5213   -1.1960 H   0  0  0  0  0  0  0  0  0  0  0  0
  1  4  1  0  0  0  0
  1  8  2  0  0  0  0
  2  3  1  0  0  0  0
  2  9  2  0  0  0  0
  3 10  2  0  0  0  0
  4 11  2  0  0  0  0
  5  7  2  0  0  0  0
  5 10  1  0  0  0  0
  6  8  1  0  0  0  0
  6 12  2  0  0  0  0
  6 14  1  0  0  0  0
  7  9  1  0  0  0  0
  7 15  1  0  0  0  0
  8 17  1  0  0  0  0
  9 18  1  0  0  0  0
 10 19  1  0  0  0  0
 11 12  1  0  0  0  0
 11 23  1  0  0  0  0
 12 24  1  0  0  0  0
 13 15  1  0  0  0  0
 13 18  1  0  0  0  0
 13 21  2  0  0  0  0
 14 20  1  0  0  0  0
 14 22  2  0  0  0  0
 16 23  1  0  0  0  0
 16 24  1  0  0  0  0
 17 18  1  0  0  0  0
  1 25  1  0  0  0  0
  2 26  1  0  0  0  0
  3 27  1  0  0  0  0
  4 28  1  0  0  0  0
  5 29  1  0  0  0  0
 15 30  1  0  0  0  0
 15 31  1  0  0  0  0
 16 32  1  0  0  0  0
 16 33  1  0  0  0  0
 17 34  1  0  0  0  0
 17 35  1  0  0  0  0
 19 36  1  0  0  0  0
 19 37  1  0  0  0  0
 19 38  1  0  0  0  0
M  CHG  2  19   1  20  -1
M  END
$$$$
