AVX40989_1
  -OEChem-04011315033D

 83 87  0     1  0  0  0  0  0999 V2000
   -0.9919   -6.5841   -0.4754 C   0  0  0  0  0  0  0  0  0  0  0  0
   -0.4220   -5.8581    0.5705 C   0  0  0  0  0  0  0  0  0  0  0  0
   -0.8897   -6.1168   -1.7857 C   0  0  0  0  0  0  0  0  0  0  0  0
    3.6099   10.2965    5.4359 C   0  0  0  0  0  0  0  0  0  0  0  0
    4.3921   10.0254   -3.0871 C   0  0  0  0  0  0  0  0  0  0  0  0
    2.8780    9.1549    5.7624 C   0  0  0  0  0  0  0  0  0  0  0  0
    0.2500   -4.6648    0.3061 C   0  0  0  0  0  0  0  0  0  0  0  0
   -0.2176   -4.9234   -2.0501 C   0  0  0  0  0  0  0  0  0  0  0  0
    4.5140   10.2653    4.3741 C   0  0  0  0  0  0  0  0  0  0  0  0
    3.3867    9.0961   -3.3539 C   0  0  0  0  0  0  0  0  0  0  0  0
    5.1826    9.8895   -1.9459 C   0  0  0  0  0  0  0  0  0  0  0  0
   -0.8974    4.0401   -2.1255 C   0  0  0  0  0  0  0  0  0  0  0  0
   -0.2509    5.2462   -2.3958 C   0  0  0  0  0  0  0  0  0  0  0  0
    3.9544    7.9509    3.9654 C   0  0  0  0  0  0  0  0  0  0  0  0
    3.9621    7.8950   -1.3381 C   0  0  0  0  0  0  0  0  0  0  0  0
    3.0502    7.9821    5.0272 C   0  0  0  0  0  0  0  0  0  0  0  0
    0.0181    4.0503    0.1102 C   0  0  0  0  0  0  0  0  0  0  0  0
    0.3522   -4.1974   -1.0042 C   0  0  0  0  0  0  0  0  0  0  0  0
    4.6863    9.0925    3.6389 C   0  0  0  0  0  0  0  0  0  0  0  0
    3.1717    8.0309   -2.4794 C   0  0  0  0  0  0  0  0  0  0  0  0
    4.9675    8.8243   -1.0714 C   0  0  0  0  0  0  0  0  0  0  0  0
   -0.7630    3.4422   -0.8725 C   0  0  0  0  0  0  0  0  0  0  0  0
    0.5302    5.8543   -1.4131 C   0  0  0  0  0  0  0  0  0  0  0  0
    0.6647    5.2563   -0.1600 C   0  0  0  0  0  0  0  0  0  0  0  0
    2.2784    6.7772    5.3714 C   0  0  0  0  0  0  0  0  0  0  0  0
    0.1647    3.4194    1.4371 C   0  0  0  0  0  0  0  0  0  0  0  0
   -0.2566    0.6003   -2.0060 C   0  0  0  0  0  0  0  0  0  0  0  0
   -1.1068   -0.1157    0.1415 C   0  0  0  0  0  0  0  0  0  0  0  0
    0.7357   -0.5573   -2.0386 C   0  0  0  0  0  0  0  0  0  0  0  0
   -0.1392   -1.2941    0.1712 C   0  0  0  0  0  0  0  0  0  0  0  0
    0.7763    6.7811    1.6617 C   0  0  0  0  0  0  0  0  0  0  0  0
   -1.4706    2.1442   -0.6103 C   0  0  0  0  0  0  0  0  0  0  0  0
    1.0747   -2.9138   -1.2893 C   0  0  0  0  0  0  0  0  0  0  0  0
    5.6589    9.0588    2.4969 C   0  0  0  0  0  0  0  0  0  0  0  0
    2.0909    7.0309   -2.7679 C   0  0  0  0  0  0  0  0  0  0  0  0
    5.8124    8.6794    0.1493 C   0  0  2  0  0  0  0  0  0  0  0  0
   -0.5513    1.0069   -0.6256 N   0  0  0  0  0  0  0  0  0  0  0  0
    0.1769   -1.7102   -1.2434 N   0  3  0  0  0  0  0  0  0  0  0  0
    2.4562    5.7076    4.6763 O   0  5  0  0  0  0  0  0  0  0  0  0
   -0.6787    3.7226    2.3589 O   0  5  0  0  0  0  0  0  0  0  0  0
    1.4502    6.8318    6.3562 O   0  0  0  0  0  0  0  0  0  0  0  0
    1.1303    2.5908    1.6210 O   0  0  0  0  0  0  0  0  0  0  0  0
    6.5275    7.4427    0.0723 O   0  0  0  0  0  0  0  0  0  0  0  0
    1.4308    5.8578    0.7951 O   0  0  0  0  0  0  0  0  0  0  0  0
    1.1560    7.0321   -1.6909 O   0  0  0  0  0  0  0  0  0  0  0  0
    4.9606    8.7353    1.3021 O   0  0  0  0  0  0  0  0  0  0  0  0
   -1.5140   -7.5140   -0.2695 H   0  0  0  0  0  0  0  0  0  0  0  0
   -0.5006   -6.2224    1.5907 H   0  0  0  0  0  0  0  0  0  0  0  0
   -1.3323   -6.6823   -2.6003 H   0  0  0  0  0  0  0  0  0  0  0  0
    3.4755   11.2095    6.0084 H   0  0  0  0  0  0  0  0  0  0  0  0
    4.5596   10.8548   -3.7682 H   0  0  0  0  0  0  0  0  0  0  0  0
    2.1758    9.1900    6.5914 H   0  0  0  0  0  0  0  0  0  0  0  0
    0.6908   -4.1056    1.1273 H   0  0  0  0  0  0  0  0  0  0  0  0
   -0.1431   -4.5670   -3.0741 H   0  0  0  0  0  0  0  0  0  0  0  0
    5.0799   11.1595    4.1268 H   0  0  0  0  0  0  0  0  0  0  0  0
    2.7761    9.2099   -4.2459 H   0  0  0  0  0  0  0  0  0  0  0  0
    5.9631   10.6187   -1.7456 H   0  0  0  0  0  0  0  0  0  0  0  0
   -1.5040    3.5742   -2.8977 H   0  0  0  0  0  0  0  0  0  0  0  0
   -0.3598    5.7069   -3.3739 H   0  0  0  0  0  0  0  0  0  0  0  0
    4.0896    7.0373    3.3912 H   0  0  0  0  0  0  0  0  0  0  0  0
    3.7956    7.0642   -0.6565 H   0  0  0  0  0  0  0  0  0  0  0  0
    0.1849    1.4418   -2.5534 H   0  0  0  0  0  0  0  0  0  0  0  0
   -1.1763    0.3160   -2.5348 H   0  0  0  0  0  0  0  0  0  0  0  0
   -2.0700   -0.4367   -0.2773 H   0  0  0  0  0  0  0  0  0  0  0  0
   -1.2910    0.1985    1.1760 H   0  0  0  0  0  0  0  0  0  0  0  0
    0.8864   -0.9092   -3.0645 H   0  0  0  0  0  0  0  0  0  0  0  0
    1.7020   -0.2835   -1.5993 H   0  0  0  0  0  0  0  0  0  0  0  0
    0.8055   -1.0377    0.6647 H   0  0  0  0  0  0  0  0  0  0  0  0
   -0.5935   -2.1553    0.6722 H   0  0  0  0  0  0  0  0  0  0  0  0
    1.4982    7.1877    2.3742 H   0  0  0  0  0  0  0  0  0  0  0  0
   -0.0309    6.2724    2.1947 H   0  0  0  0  0  0  0  0  0  0  0  0
    0.3594    7.5952    1.0641 H   0  0  0  0  0  0  0  0  0  0  0  0
   -1.9655    2.1648    0.3668 H   0  0  0  0  0  0  0  0  0  0  0  0
   -2.2443    1.9595   -1.3629 H   0  0  0  0  0  0  0  0  0  0  0  0
    1.8732   -2.7385   -0.5603 H   0  0  0  0  0  0  0  0  0  0  0  0
    1.5298   -2.9289   -2.2855 H   0  0  0  0  0  0  0  0  0  0  0  0
    6.1500   10.0299    2.3717 H   0  0  0  0  0  0  0  0  0  0  0  0
    6.4373    8.3084    2.6725 H   0  0  0  0  0  0  0  0  0  0  0  0
    1.5659    7.2783   -3.6969 H   0  0  0  0  0  0  0  0  0  0  0  0
    2.5119    6.0256   -2.8770 H   0  0  0  0  0  0  0  0  0  0  0  0
    6.5536    9.4953    0.2061 H   0  0  0  0  0  0  0  0  0  0  0  0
   -0.7095   -1.9883   -1.6869 H   0  0  0  0  0  0  0  0  0  0  0  0
    7.0822    7.4676   -0.7257 H   0  0  0  0  0  0  0  0  0  0  0  0
  1  2  2  0  0  0  0
  1  3  1  0  0  0  0
  2  7  1  0  0  0  0
  3  8  2  0  0  0  0
  4  6  1  0  0  0  0
  4  9  2  0  0  0  0
  5 10  2  0  0  0  0
  5 11  1  0  0  0  0
  6 16  2  0  0  0  0
  7 18  2  0  0  0  0
  8 18  1  0  0  0  0
  9 19  1  0  0  0  0
 10 20  1  0  0  0  0
 11 21  2  0  0  0  0
 12 13  2  0  0  0  0
 12 22  1  0  0  0  0
 13 23  1  0  0  0  0
 14 16  1  0  0  0  0
 14 19  2  0  0  0  0
 15 20  2  0  0  0  0
 15 21  1  0  0  0  0
 16 25  1  0  0  0  0
 17 22  2  0  0  0  0
 17 24  1  0  0  0  0
 17 26  1  0  0  0  0
 18 33  1  0  0  0  0
 19 34  1  0  0  0  0
 20 35  1  0  0  0  0
 21 36  1  0  0  0  0
 22 32  1  0  0  0  0
 23 24  2  0  0  0  0
 23 45  1  0  0  0  0
 24 44  1  0  0  0  0
 25 39  1  0  0  0  0
 25 41  2  0  0  0  0
 26 40  1  0  0  0  0
 26 42  2  0  0  0  0
 27 29  1  0  0  0  0
 27 37  1  0  0  0  0
 28 30  1  0  0  0  0
 28 37  1  0  0  0  0
 29 38  1  0  0  0  0
 30 38  1  0  0  0  0
 31 44  1  0  0  0  0
 32 37  1  0  0  0  0
 33 38  1  0  0  0  0
 34 46  1  0  0  0  0
 35 45  1  0  0  0  0
 36 43  1  0  0  0  0
 36 46  1  0  0  0  0
  1 47  1  0  0  0  0
  2 48  1  0  0  0  0
  3 49  1  0  0  0  0
  4 50  1  0  0  0  0
  5 51  1  0  0  0  0
  6 52  1  0  0  0  0
  7 53  1  0  0  0  0
  8 54  1  0  0  0  0
  9 55  1  0  0  0  0
 10 56  1  0  0  0  0
 11 57  1  0  0  0  0
 12 58  1  0  0  0  0
 13 59  1  0  0  0  0
 14 60  1  0  0  0  0
 15 61  1  0  0  0  0
 27 62  1  0  0  0  0
 27 63  1  0  0  0  0
 28 64  1  0  0  0  0
 28 65  1  0  0  0  0
 29 66  1  0  0  0  0
 29 67  1  0  0  0  0
 30 68  1  0  0  0  0
 30 69  1  0  0  0  0
 31 70  1  0  0  0  0
 31 71  1  0  0  0  0
 31 72  1  0  0  0  0
 32 73  1  0  0  0  0
 32 74  1  0  0  0  0
 33 75  1  0  0  0  0
 33 76  1  0  0  0  0
 34 77  1  0  0  0  0
 34 78  1  0  0  0  0
 35 79  1  0  0  0  0
 35 80  1  0  0  0  0
 36 81  1  0  0  0  0
 38 82  1  0  0  0  0
 43 83  1  0  0  0  0
M  CHG  3  38   1  39  -1  40  -1
M  END
$$$$
