AVX40911_0
  -OEChem-04011315023D

 31 33  0     0  0  0  0  0  0999 V2000
    1.3522    4.4756    1.5727 C   0  0  0  0  0  0  0  0  0  0  0  0
    0.6632    3.6747    2.4834 C   0  0  0  0  0  0  0  0  0  0  0  0
    1.4192    4.1053    0.2295 C   0  0  0  0  0  0  0  0  0  0  0  0
    0.0414    2.5033    2.0510 C   0  0  0  0  0  0  0  0  0  0  0  0
    0.7975    2.9339   -0.2028 C   0  0  0  0  0  0  0  0  0  0  0  0
    2.3984   -0.1712    0.4922 C   0  0  0  0  0  0  0  0  0  0  0  0
    3.7793   -0.2355    0.2916 C   0  0  0  0  0  0  0  0  0  0  0  0
    0.1085    2.1329    0.7079 C   0  0  0  0  0  0  0  0  0  0  0  0
    1.5135   -0.2208   -0.5994 C   0  0  0  0  0  0  0  0  0  0  0  0
    1.9995   -0.3351   -1.9041 C   0  0  0  0  0  0  0  0  0  0  0  0
    4.2333   -0.3482   -1.0064 C   0  0  0  0  0  0  0  0  0  0  0  0
    3.3672   -0.3968   -2.0749 C   0  0  0  0  0  0  0  0  0  0  0  0
   -0.5481    0.8955    0.2506 C   0  0  0  0  0  0  0  0  0  0  0  0
    0.0823   -0.1497   -0.3310 C   0  0  0  0  0  0  0  0  0  0  0  0
    1.1016   -0.3930   -3.0711 C   0  0  0  0  0  0  0  0  0  0  0  0
    5.3928   -0.5254   -2.8247 C   0  0  0  0  0  0  0  0  0  0  0  0
    0.6878   -1.5425   -3.4760 O   0  5  0  0  0  0  0  0  0  0  0  0
    0.7624    0.7078   -3.6452 O   0  0  0  0  0  0  0  0  0  0  0  0
    5.5358   -0.4243   -1.3931 O   0  0  0  0  0  0  0  0  0  0  0  0
    4.0191   -0.5091   -3.2641 O   0  0  0  0  0  0  0  0  0  0  0  0
    1.8352    5.3883    1.9091 H   0  0  0  0  0  0  0  0  0  0  0  0
    0.6099    3.9634    3.5292 H   0  0  0  0  0  0  0  0  0  0  0  0
    1.9546    4.7294   -0.4799 H   0  0  0  0  0  0  0  0  0  0  0  0
   -0.4918    1.8892    2.7729 H   0  0  0  0  0  0  0  0  0  0  0  0
    0.8587    2.6587   -1.2531 H   0  0  0  0  0  0  0  0  0  0  0  0
    2.0194   -0.0831    1.5083 H   0  0  0  0  0  0  0  0  0  0  0  0
    4.4644   -0.1972    1.1310 H   0  0  0  0  0  0  0  0  0  0  0  0
   -1.6175    0.8445    0.4406 H   0  0  0  0  0  0  0  0  0  0  0  0
   -0.5075   -1.0094   -0.6629 H   0  0  0  0  0  0  0  0  0  0  0  0
    5.9208    0.3147   -3.2904 H   0  0  0  0  0  0  0  0  0  0  0  0
    5.8565   -1.4610   -3.1577 H   0  0  0  0  0  0  0  0  0  0  0  0
  1  2  1  0  0  0  0
  1  3  2  0  0  0  0
  2  4  2  0  0  0  0
  3  5  1  0  0  0  0
  4  8  1  0  0  0  0
  5  8  2  0  0  0  0
  6  7  2  0  0  0  0
  6  9  1  0  0  0  0
  7 11  1  0  0  0  0
  8 13  1  0  0  0  0
  9 10  2  0  0  0  0
  9 14  1  0  0  0  0
 10 12  1  0  0  0  0
 10 15  1  0  0  0  0
 11 12  2  0  0  0  0
 11 19  1  0  0  0  0
 12 20  1  0  0  0  0
 13 14  2  0  0  0  0
 15 17  1  0  0  0  0
 15 18  2  0  0  0  0
 16 19  1  0  0  0  0
 16 20  1  0  0  0  0
  1 21  1  0  0  0  0
  2 22  1  0  0  0  0
  3 23  1  0  0  0  0
  4 24  1  0  0  0  0
  5 25  1  0  0  0  0
  6 26  1  0  0  0  0
  7 27  1  0  0  0  0
 13 28  1  0  0  0  0
 14 29  1  0  0  0  0
 16 30  1  0  0  0  0
 16 31  1  0  0  0  0
M  CHG  1  17  -1
M  END
$$$$
