AVX40911_1
  -OEChem-04011315023D

 31 33  0     0  0  0  0  0  0999 V2000
    1.1040   -1.3282   -5.2506 C   0  0  0  0  0  0  0  0  0  0  0  0
    0.4189   -2.0260   -4.2560 C   0  0  0  0  0  0  0  0  0  0  0  0
    1.5504   -0.0288   -5.0095 C   0  0  0  0  0  0  0  0  0  0  0  0
    0.1801   -1.4246   -3.0204 C   0  0  0  0  0  0  0  0  0  0  0  0
    1.3116    0.5727   -3.7739 C   0  0  0  0  0  0  0  0  0  0  0  0
    0.8726    1.2794    1.5062 C   0  0  0  0  0  0  0  0  0  0  0  0
    0.7042    1.9049    2.7438 C   0  0  0  0  0  0  0  0  0  0  0  0
    0.6264   -0.1252   -2.7793 C   0  0  0  0  0  0  0  0  0  0  0  0
   -0.1481    0.4787    0.9641 C   0  0  0  0  0  0  0  0  0  0  0  0
   -1.3491    0.2943    1.6535 C   0  0  0  0  0  0  0  0  0  0  0  0
   -0.4910    1.7067    3.4041 C   0  0  0  0  0  0  0  0  0  0  0  0
   -1.4901    0.9230    2.8735 C   0  0  0  0  0  0  0  0  0  0  0  0
    0.3743    0.5108   -1.4741 C   0  0  0  0  0  0  0  0  0  0  0  0
    0.0823   -0.1497   -0.3310 C   0  0  0  0  0  0  0  0  0  0  0  0
   -2.4412   -0.5352    1.1144 C   0  0  0  0  0  0  0  0  0  0  0  0
   -2.1588    1.6916    4.7825 C   0  0  0  0  0  0  0  0  0  0  0  0
   -3.3339    0.0234    0.3742 O   0  5  0  0  0  0  0  0  0  0  0  0
   -2.4649   -1.7893    1.4024 O   0  0  0  0  0  0  0  0  0  0  0  0
   -0.8328    2.2326    4.6117 O   0  0  0  0  0  0  0  0  0  0  0  0
   -2.5825    0.8600    3.6827 O   0  0  0  0  0  0  0  0  0  0  0  0
    1.2910   -1.7969   -6.2122 H   0  0  0  0  0  0  0  0  0  0  0  0
    0.0722   -3.0383   -4.4431 H   0  0  0  0  0  0  0  0  0  0  0  0
    2.0848    0.5143   -5.7834 H   0  0  0  0  0  0  0  0  0  0  0  0
   -0.3555   -1.9813   -2.2550 H   0  0  0  0  0  0  0  0  0  0  0  0
    1.6658    1.5862   -3.6012 H   0  0  0  0  0  0  0  0  0  0  0  0
    1.8074    1.4236    0.9684 H   0  0  0  0  0  0  0  0  0  0  0  0
    1.4894    2.5227    3.1648 H   0  0  0  0  0  0  0  0  0  0  0  0
    0.4696    1.5939   -1.4637 H   0  0  0  0  0  0  0  0  0  0  0  0
    0.0388   -1.2429   -0.3443 H   0  0  0  0  0  0  0  0  0  0  0  0
   -2.1790    1.0955    5.7021 H   0  0  0  0  0  0  0  0  0  0  0  0
   -2.8656    2.5229    4.8860 H   0  0  0  0  0  0  0  0  0  0  0  0
  1  2  1  0  0  0  0
  1  3  2  0  0  0  0
  2  4  2  0  0  0  0
  3  5  1  0  0  0  0
  4  8  1  0  0  0  0
  5  8  2  0  0  0  0
  6  7  2  0  0  0  0
  6  9  1  0  0  0  0
  7 11  1  0  0  0  0
  8 13  1  0  0  0  0
  9 10  2  0  0  0  0
  9 14  1  0  0  0  0
 10 12  1  0  0  0  0
 10 15  1  0  0  0  0
 11 12  2  0  0  0  0
 11 19  1  0  0  0  0
 12 20  1  0  0  0  0
 13 14  2  0  0  0  0
 15 17  1  0  0  0  0
 15 18  2  0  0  0  0
 16 19  1  0  0  0  0
 16 20  1  0  0  0  0
  1 21  1  0  0  0  0
  2 22  1  0  0  0  0
  3 23  1  0  0  0  0
  4 24  1  0  0  0  0
  5 25  1  0  0  0  0
  6 26  1  0  0  0  0
  7 27  1  0  0  0  0
 13 28  1  0  0  0  0
 14 29  1  0  0  0  0
 16 30  1  0  0  0  0
 16 31  1  0  0  0  0
M  CHG  1  17  -1
M  END
$$$$
