AVX40801_0
  -OEChem-04011315023D

 29 31  0     0  0  0  0  0  0999 V2000
   -0.1948   -1.2188   -1.7733 C   0  0  0  0  0  0  0  0  0  0  0  0
    0.0489   -1.0083   -0.4029 C   0  0  0  0  0  0  0  0  0  0  0  0
    0.9818   -9.2585   -3.1403 C   0  0  0  0  0  0  0  0  0  0  0  0
   -0.1402   -2.5032   -2.3253 C   0  0  0  0  0  0  0  0  0  0  0  0
    0.3519   -2.0775    0.4422 C   0  0  0  0  0  0  0  0  0  0  0  0
    1.4271   -7.9137   -3.1474 C   0  0  0  0  0  0  0  0  0  0  0  0
   -0.3751   -9.2412   -2.9036 C   0  0  0  0  0  0  0  0  0  0  0  0
    0.1604   -3.5565   -1.4826 C   0  0  0  0  0  0  0  0  0  0  0  0
    0.4008   -3.3366   -0.1231 C   0  0  0  0  0  0  0  0  0  0  0  0
    0.3289   -7.1155   -2.9147 C   0  0  0  0  0  0  0  0  0  0  0  0
    0.3033   -4.9945   -1.6833 C   0  0  0  0  0  0  0  0  0  0  0  0
    0.6440   -5.6207   -0.3620 C   0  0  0  0  0  0  0  0  0  0  0  0
    0.1687   -5.6938   -2.8117 C   0  0  0  0  0  0  0  0  0  0  0  0
   -2.1242   -7.5191   -2.5069 C   0  0  0  0  0  0  0  0  0  0  0  0
   -0.7609   -7.9332   -2.7677 N   0  0  0  0  0  0  0  0  0  0  0  0
    0.6826   -4.5427    0.5281 N   0  0  0  0  0  0  0  0  0  0  0  0
    0.8372   -6.8024   -0.1432 O   0  0  0  0  0  0  0  0  0  0  0  0
   -0.4282   -0.3694   -2.4102 H   0  0  0  0  0  0  0  0  0  0  0  0
    0.0012    0.0003   -0.0007 H   0  0  0  0  0  0  0  0  0  0  0  0
    1.5836  -10.1438   -3.2899 H   0  0  0  0  0  0  0  0  0  0  0  0
   -0.3291   -2.6545   -3.3823 H   0  0  0  0  0  0  0  0  0  0  0  0
    0.5403   -1.9161    1.4974 H   0  0  0  0  0  0  0  0  0  0  0  0
    2.4404   -7.5705   -3.3067 H   0  0  0  0  0  0  0  0  0  0  0  0
   -1.0918  -10.0472   -2.8197 H   0  0  0  0  0  0  0  0  0  0  0  0
   -0.0527   -5.1412   -3.7249 H   0  0  0  0  0  0  0  0  0  0  0  0
   -2.2622   -7.4760   -1.4233 H   0  0  0  0  0  0  0  0  0  0  0  0
   -2.2981   -6.5363   -2.9538 H   0  0  0  0  0  0  0  0  0  0  0  0
   -2.8131   -8.2422   -2.9527 H   0  0  0  0  0  0  0  0  0  0  0  0
    0.8882   -4.6244    1.5170 H   0  0  0  0  0  0  0  0  0  0  0  0
  1  2  2  0  0  0  0
  1  4  1  0  0  0  0
  2  5  1  0  0  0  0
  3  6  1  0  0  0  0
  3  7  2  0  0  0  0
  4  8  2  0  0  0  0
  5  9  2  0  0  0  0
  6 10  2  0  0  0  0
  7 15  1  0  0  0  0
  8  9  1  0  0  0  0
  8 11  1  0  0  0  0
  9 16  1  0  0  0  0
 10 13  1  0  0  0  0
 10 15  1  0  0  0  0
 11 12  1  0  0  0  0
 11 13  2  0  0  0  0
 12 16  1  0  0  0  0
 12 17  2  0  0  0  0
 14 15  1  0  0  0  0
  1 18  1  0  0  0  0
  2 19  1  0  0  0  0
  3 20  1  0  0  0  0
  4 21  1  0  0  0  0
  5 22  1  0  0  0  0
  6 23  1  0  0  0  0
  7 24  1  0  0  0  0
 13 25  1  0  0  0  0
 14 26  1  0  0  0  0
 14 27  1  0  0  0  0
 14 28  1  0  0  0  0
 16 29  1  0  0  0  0
M  END
$$$$
