AVX40812_1
  -OEChem-04011315023D

 59 62  0     1  0  0  0  0  0999 V2000
   -4.5108    1.5273    4.0727 C   0  0  0  0  0  0  0  0  0  0  0  0
   -4.0021    2.5967    4.8071 C   0  0  0  0  0  0  0  0  0  0  0  0
   -3.7490    0.3707    3.8701 C   0  0  0  0  0  0  0  0  0  0  0  0
   -2.5067    0.9004   -3.0947 C   0  0  0  0  0  0  0  0  0  0  0  0
   -2.7198    2.5454    5.3613 C   0  0  0  0  0  0  0  0  0  0  0  0
   -2.7292    1.8221   -4.1205 C   0  0  0  0  0  0  0  0  0  0  0  0
   -0.3644   -0.1958    5.1285 C   0  0  0  0  0  0  0  0  0  0  0  0
   -2.4535    0.2961    4.4191 C   0  0  0  0  0  0  0  0  0  0  0  0
   -3.2082    2.5263   -1.4236 C   0  0  0  0  0  0  0  0  0  0  0  0
   -2.7449    1.2504   -1.7539 C   0  0  0  0  0  0  0  0  0  0  0  0
   -1.4299   -0.6925    4.4138 C   0  0  0  0  0  0  0  0  0  0  0  0
   -1.9698    1.3830    5.1505 C   0  0  0  0  0  0  0  0  0  0  0  0
   -3.1866    3.0750   -3.7675 C   0  0  0  0  0  0  0  0  0  0  0  0
   -3.4198    3.4177   -2.4552 C   0  0  0  0  0  0  0  0  0  0  0  0
   -3.4661    2.9169   -0.0283 C   0  0  0  0  0  0  0  0  0  0  0  0
   -0.7071   -2.1070    2.4507 C   0  0  0  0  0  0  0  0  0  0  0  0
   -3.8886    5.1208   -3.7047 C   0  0  0  0  0  0  0  0  0  0  0  0
    2.0052    0.2419   -1.2482 C   0  0  0  0  0  0  0  0  0  0  0  0
    2.1417    1.4838    0.9196 C   0  0  0  0  0  0  0  0  0  0  0  0
   -1.4897   -2.0418    3.7481 C   0  0  0  0  0  0  0  0  0  0  0  0
   -2.4894    0.2190   -0.6808 C   0  0  0  0  0  0  0  0  0  0  0  0
   -0.1114    0.7480    0.0855 C   0  0  0  0  0  0  0  0  0  0  0  0
   -0.9724   -1.6815    0.0179 C   0  0  0  0  0  0  0  0  0  0  0  0
    1.3900    0.3982    0.1429 C   0  0  0  0  0  0  0  0  0  0  0  0
   -1.0240   -0.2830   -0.6244 C   0  0  1  0  0  0  0  0  0  0  0  0
   -0.6995    1.0564    5.5691 N   0  0  0  0  0  0  0  0  0  0  0  0
   -1.4796   -1.7139    1.3623 N   0  0  0  0  0  0  0  0  0  0  0  0
   -4.6400    2.7198    0.4637 O   0  5  0  0  0  0  0  0  0  0  0  0
   -2.5097    3.4435    0.6550 O   0  0  0  0  0  0  0  0  0  0  0  0
    0.4671   -2.4618    2.3842 O   0  0  0  0  0  0  0  0  0  0  0  0
   -3.4587    4.0965   -4.6246 O   0  0  0  0  0  0  0  0  0  0  0  0
   -3.8669    4.6965   -2.3264 O   0  0  0  0  0  0  0  0  0  0  0  0
   -5.5108    1.5904    3.6522 H   0  0  0  0  0  0  0  0  0  0  0  0
   -4.6110    3.4854    4.9521 H   0  0  0  0  0  0  0  0  0  0  0  0
   -4.1602   -0.4547    3.2960 H   0  0  0  0  0  0  0  0  0  0  0  0
   -2.1465   -0.0951   -3.3435 H   0  0  0  0  0  0  0  0  0  0  0  0
   -2.3243    3.3788    5.9319 H   0  0  0  0  0  0  0  0  0  0  0  0
   -2.5468    1.5563   -5.1555 H   0  0  0  0  0  0  0  0  0  0  0  0
    0.6015   -0.6205    5.3649 H   0  0  0  0  0  0  0  0  0  0  0  0
   -3.2299    5.9899   -3.8146 H   0  0  0  0  0  0  0  0  0  0  0  0
   -4.9110    5.4188   -3.9641 H   0  0  0  0  0  0  0  0  0  0  0  0
    1.8955    1.1593   -1.8362 H   0  0  0  0  0  0  0  0  0  0  0  0
    3.0740    0.0127   -1.1766 H   0  0  0  0  0  0  0  0  0  0  0  0
    1.5363   -0.5765   -1.8023 H   0  0  0  0  0  0  0  0  0  0  0  0
    2.0457    2.4550    0.4225 H   0  0  0  0  0  0  0  0  0  0  0  0
    3.2090    1.2475    0.9842 H   0  0  0  0  0  0  0  0  0  0  0  0
    1.7539    1.5853    1.9390 H   0  0  0  0  0  0  0  0  0  0  0  0
   -1.1031   -2.8071    4.4332 H   0  0  0  0  0  0  0  0  0  0  0  0
   -2.5342   -2.3069    3.5410 H   0  0  0  0  0  0  0  0  0  0  0  0
   -3.1648   -0.6261   -0.8709 H   0  0  0  0  0  0  0  0  0  0  0  0
   -2.7875    0.6205    0.2964 H   0  0  0  0  0  0  0  0  0  0  0  0
   -0.4758    0.9016    1.1099 H   0  0  0  0  0  0  0  0  0  0  0  0
   -0.2136    1.7178   -0.4181 H   0  0  0  0  0  0  0  0  0  0  0  0
   -1.5662   -2.3924   -0.5671 H   0  0  0  0  0  0  0  0  0  0  0  0
    0.0505   -2.0684    0.0451 H   0  0  0  0  0  0  0  0  0  0  0  0
    1.5250   -0.5421    0.6895 H   0  0  0  0  0  0  0  0  0  0  0  0
   -0.6696   -0.3978   -1.6566 H   0  0  0  0  0  0  0  0  0  0  0  0
   -0.1015    1.6553    6.1216 H   0  0  0  0  0  0  0  0  0  0  0  0
   -2.4466   -1.4371    1.5254 H   0  0  0  0  0  0  0  0  0  0  0  0
  1  2  2  0  0  0  0
  1  3  1  0  0  0  0
  2  5  1  0  0  0  0
  3  8  2  0  0  0  0
  4  6  2  0  0  0  0
  4 10  1  0  0  0  0
  5 12  2  0  0  0  0
  6 13  1  0  0  0  0
  7 11  2  0  0  0  0
  7 26  1  0  0  0  0
  8 11  1  0  0  0  0
  8 12  1  0  0  0  0
  9 10  2  0  0  0  0
  9 14  1  0  0  0  0
  9 15  1  0  0  0  0
 10 21  1  0  0  0  0
 11 20  1  0  0  0  0
 12 26  1  0  0  0  0
 13 14  2  0  0  0  0
 13 31  1  0  0  0  0
 14 32  1  0  0  0  0
 15 28  1  0  0  0  0
 15 29  2  0  0  0  0
 16 20  1  0  0  0  0
 16 27  1  0  0  0  0
 16 30  2  0  0  0  0
 17 31  1  0  0  0  0
 17 32  1  0  0  0  0
 18 24  1  0  0  0  0
 19 24  1  0  0  0  0
 21 25  1  0  0  0  0
 22 24  1  0  0  0  0
 22 25  1  0  0  0  0
 23 25  1  0  0  0  0
 23 27  1  0  0  0  0
  1 33  1  0  0  0  0
  2 34  1  0  0  0  0
  3 35  1  0  0  0  0
  4 36  1  0  0  0  0
  5 37  1  0  0  0  0
  6 38  1  0  0  0  0
  7 39  1  0  0  0  0
 17 40  1  0  0  0  0
 17 41  1  0  0  0  0
 18 42  1  0  0  0  0
 18 43  1  0  0  0  0
 18 44  1  0  0  0  0
 19 45  1  0  0  0  0
 19 46  1  0  0  0  0
 19 47  1  0  0  0  0
 20 48  1  0  0  0  0
 20 49  1  0  0  0  0
 21 50  1  0  0  0  0
 21 51  1  0  0  0  0
 22 52  1  0  0  0  0
 22 53  1  0  0  0  0
 23 54  1  0  0  0  0
 23 55  1  0  0  0  0
 24 56  1  0  0  0  0
 25 57  1  0  0  0  0
 26 58  1  0  0  0  0
 27 59  1  0  0  0  0
M  CHG  1  28  -1
M  END
$$$$
