AVX40861_0
  -OEChem-04011315023D

 52 55  0     0  0  0  0  0  0999 V2000
    2.5541   -3.8679    1.8341 C   0  0  0  0  0  0  0  0  0  0  0  0
    1.8540   -4.0476    0.6411 C   0  0  0  0  0  0  0  0  0  0  0  0
    2.8829   -2.5819    2.2629 C   0  0  0  0  0  0  0  0  0  0  0  0
   -0.2686    1.2443   -2.6696 C   0  0  0  0  0  0  0  0  0  0  0  0
    3.5754    3.2436   -0.9883 C   0  0  0  0  0  0  0  0  0  0  0  0
    1.8614    3.9788    0.5475 C   0  0  0  0  0  0  0  0  0  0  0  0
   -0.8406    2.4991   -2.8923 C   0  0  0  0  0  0  0  0  0  0  0  0
    1.4829   -2.9413   -0.1231 C   0  0  0  0  0  0  0  0  0  0  0  0
    3.1034    4.1422   -1.9451 C   0  0  0  0  0  0  0  0  0  0  0  0
    1.3894    4.8774   -0.4093 C   0  0  0  0  0  0  0  0  0  0  0  0
    2.5117   -1.4757    1.4987 C   0  0  0  0  0  0  0  0  0  0  0  0
   -1.0650    1.2420   -0.3688 C   0  0  0  0  0  0  0  0  0  0  0  0
    2.9543    3.1619    0.2580 C   0  0  0  0  0  0  0  0  0  0  0  0
   -0.3802    0.6193   -1.4151 C   0  0  0  0  0  0  0  0  0  0  0  0
   -1.5114    3.0924   -1.8427 C   0  0  0  0  0  0  0  0  0  0  0  0
   -1.6207    2.4807   -0.6148 C   0  0  0  0  0  0  0  0  0  0  0  0
    2.0105    4.9590   -1.6556 C   0  0  0  0  0  0  0  0  0  0  0  0
    1.8117   -1.6553    0.3057 C   0  0  0  0  0  0  0  0  0  0  0  0
    2.8650   -0.1420    1.9646 C   0  0  0  0  0  0  0  0  0  0  0  0
   -1.1968    0.6086    0.9531 C   0  0  0  0  0  0  0  0  0  0  0  0
   -2.6387    4.3880   -0.5264 C   0  0  0  0  0  0  0  0  0  0  0  0
    2.2335    5.8691   -3.8414 C   0  0  0  0  0  0  0  0  0  0  0  0
    3.4626    2.1952    1.2882 C   0  0  0  0  0  0  0  0  0  0  0  0
    0.2489   -0.7235   -1.2257 C   0  0  0  0  0  0  0  0  0  0  0  0
    3.0831    0.8338    0.9862 N   0  0  0  0  0  0  0  0  0  0  0  0
   -2.2110   -0.1530    1.1772 O   0  5  0  0  0  0  0  0  0  0  0  0
    2.9822    0.0897    3.1800 O   0  0  0  0  0  0  0  0  0  0  0  0
   -0.2938    0.8368    1.8427 O   0  0  0  0  0  0  0  0  0  0  0  0
   -2.1290    4.3047   -1.8730 O   0  0  0  0  0  0  0  0  0  0  0  0
   -2.3202    3.2335    0.2774 O   0  0  0  0  0  0  0  0  0  0  0  0
    1.5509    5.8367   -2.5889 O   0  0  0  0  0  0  0  0  0  0  0  0
    1.4364   -0.5809   -0.4581 O   0  0  0  0  0  0  0  0  0  0  0  0
    2.8430   -4.7297    2.4290 H   0  0  0  0  0  0  0  0  0  0  0  0
    1.5988   -5.0491    0.3075 H   0  0  0  0  0  0  0  0  0  0  0  0
    3.4283   -2.4539    3.1945 H   0  0  0  0  0  0  0  0  0  0  0  0
    0.2659    0.7526   -3.4790 H   0  0  0  0  0  0  0  0  0  0  0  0
    4.4274    2.6110   -1.2225 H   0  0  0  0  0  0  0  0  0  0  0  0
    1.3712    3.9218    1.5160 H   0  0  0  0  0  0  0  0  0  0  0  0
   -0.7570    2.9844   -3.8580 H   0  0  0  0  0  0  0  0  0  0  0  0
    0.9375   -3.0882   -1.0514 H   0  0  0  0  0  0  0  0  0  0  0  0
    3.5917    4.2014   -2.9142 H   0  0  0  0  0  0  0  0  0  0  0  0
    0.5380    5.5111   -0.1775 H   0  0  0  0  0  0  0  0  0  0  0  0
   -2.2158    5.2776   -0.0456 H   0  0  0  0  0  0  0  0  0  0  0  0
   -3.7286    4.4955   -0.5696 H   0  0  0  0  0  0  0  0  0  0  0  0
    1.7658    6.6113   -4.4930 H   0  0  0  0  0  0  0  0  0  0  0  0
    2.1901    4.8811   -4.3067 H   0  0  0  0  0  0  0  0  0  0  0  0
    3.2771    6.1437   -3.6705 H   0  0  0  0  0  0  0  0  0  0  0  0
    4.5556    2.2351    1.3491 H   0  0  0  0  0  0  0  0  0  0  0  0
    3.0724    2.4388    2.2820 H   0  0  0  0  0  0  0  0  0  0  0  0
   -0.4293   -1.4099   -0.7031 H   0  0  0  0  0  0  0  0  0  0  0  0
    0.5024   -1.1788   -2.1914 H   0  0  0  0  0  0  0  0  0  0  0  0
    3.0357    0.5744    0.0062 H   0  0  0  0  0  0  0  0  0  0  0  0
  1  2  1  0  0  0  0
  1  3  2  0  0  0  0
  2  8  2  0  0  0  0
  3 11  1  0  0  0  0
  4  7  1  0  0  0  0
  4 14  2  0  0  0  0
  5  9  1  0  0  0  0
  5 13  2  0  0  0  0
  6 10  2  0  0  0  0
  6 13  1  0  0  0  0
  7 15  2  0  0  0  0
  8 18  1  0  0  0  0
  9 17  2  0  0  0  0
 10 17  1  0  0  0  0
 11 18  2  0  0  0  0
 11 19  1  0  0  0  0
 12 14  1  0  0  0  0
 12 16  2  0  0  0  0
 12 20  1  0  0  0  0
 13 23  1  0  0  0  0
 14 24  1  0  0  0  0
 15 16  1  0  0  0  0
 15 29  1  0  0  0  0
 16 30  1  0  0  0  0
 17 31  1  0  0  0  0
 18 32  1  0  0  0  0
 19 25  1  0  0  0  0
 19 27  2  0  0  0  0
 20 26  1  0  0  0  0
 20 28  2  0  0  0  0
 21 29  1  0  0  0  0
 21 30  1  0  0  0  0
 22 31  1  0  0  0  0
 23 25  1  0  0  0  0
 24 32  1  0  0  0  0
  1 33  1  0  0  0  0
  2 34  1  0  0  0  0
  3 35  1  0  0  0  0
  4 36  1  0  0  0  0
  5 37  1  0  0  0  0
  6 38  1  0  0  0  0
  7 39  1  0  0  0  0
  8 40  1  0  0  0  0
  9 41  1  0  0  0  0
 10 42  1  0  0  0  0
 21 43  1  0  0  0  0
 21 44  1  0  0  0  0
 22 45  1  0  0  0  0
 22 46  1  0  0  0  0
 22 47  1  0  0  0  0
 23 48  1  0  0  0  0
 23 49  1  0  0  0  0
 24 50  1  0  0  0  0
 24 51  1  0  0  0  0
 25 52  1  0  0  0  0
M  CHG  1  26  -1
M  END
$$$$
