AVX40916_3
  -OEChem-04011315033D

 46 47  0     1  0  0  0  0  0999 V2000
    4.4137   -2.5465    1.8232 C   0  0  0  0  0  0  0  0  0  0  0  0
    5.6882   -2.0918    2.1611 C   0  0  0  0  0  0  0  0  0  0  0  0
    5.1296   -4.8249    2.1884 C   0  0  0  0  0  0  0  0  0  0  0  0
    4.1343   -3.9130    1.8368 C   0  0  0  0  0  0  0  0  0  0  0  0
    6.6836   -3.0036    2.5127 C   0  0  0  0  0  0  0  0  0  0  0  0
    6.4042   -4.3702    2.5263 C   0  0  0  0  0  0  0  0  0  0  0  0
    4.8384   -6.2724    2.2019 C   0  0  0  0  0  0  0  0  0  0  0  0
    9.2002   -6.7203    2.4371 C   0  0  0  0  0  0  0  0  0  0  0  0
    1.2778   -4.1072   -2.6271 C   0  0  0  0  0  0  0  0  0  0  0  0
    2.7713   -4.2410   -2.3549 C   0  0  0  0  0  0  0  0  0  0  0  0
    0.5862   -3.3043   -1.5289 C   0  0  0  0  0  0  0  0  0  0  0  0
    3.0544   -4.8107   -0.9730 C   0  0  0  0  0  0  0  0  0  0  0  0
    0.8477   -3.8601   -0.1245 C   0  0  1  0  0  0  0  0  0  0  0  0
    0.1314   -5.1852    0.1305 C   0  0  0  0  0  0  0  0  0  0  0  0
    8.1247   -1.1340    2.8010 C   0  0  0  0  0  0  0  0  0  0  0  0
    2.7544   -4.3728    1.4688 C   0  0  0  0  0  0  0  0  0  0  0  0
    8.2004   -5.7579    1.8166 C   0  0  0  0  0  0  0  0  0  0  0  0
    2.3529   -3.9757    0.0734 N   0  3  1  0  0  0  0  0  0  0  0  0
    4.4026   -6.8019    3.2893 O   0  5  0  0  0  0  0  0  0  0  0  0
    8.6910   -7.6987    3.0532 O   0  5  0  0  0  0  0  0  0  0  0  0
    5.0318   -6.9488    1.1258 O   0  0  0  0  0  0  0  0  0  0  0  0
   10.4140   -6.4247    2.2528 O   0  0  0  0  0  0  0  0  0  0  0  0
    7.9240   -2.5454    2.8404 O   0  0  0  0  0  0  0  0  0  0  0  0
    7.3837   -5.2550    2.8710 O   0  0  0  0  0  0  0  0  0  0  0  0
    3.6448   -1.8282    1.5510 H   0  0  0  0  0  0  0  0  0  0  0  0
    5.8994   -1.0259    2.1488 H   0  0  0  0  0  0  0  0  0  0  0  0
    1.1238   -3.6148   -3.5940 H   0  0  0  0  0  0  0  0  0  0  0  0
    0.8258   -5.1027   -2.7057 H   0  0  0  0  0  0  0  0  0  0  0  0
    3.2283   -4.8828   -3.1164 H   0  0  0  0  0  0  0  0  0  0  0  0
    3.2454   -3.2556   -2.4472 H   0  0  0  0  0  0  0  0  0  0  0  0
    0.9430   -2.2669   -1.5733 H   0  0  0  0  0  0  0  0  0  0  0  0
   -0.4921   -3.2683   -1.7244 H   0  0  0  0  0  0  0  0  0  0  0  0
    2.7105   -5.8447   -0.8727 H   0  0  0  0  0  0  0  0  0  0  0  0
    4.1276   -4.7693   -0.7580 H   0  0  0  0  0  0  0  0  0  0  0  0
    0.5027   -3.1234    0.6114 H   0  0  0  0  0  0  0  0  0  0  0  0
    0.4630   -5.9285   -0.5924 H   0  0  0  0  0  0  0  0  0  0  0  0
   -0.9440   -5.0475    0.0332 H   0  0  0  0  0  0  0  0  0  0  0  0
    0.3568   -5.5387    1.1351 H   0  0  0  0  0  0  0  0  0  0  0  0
    9.1549   -0.9036    3.0836 H   0  0  0  0  0  0  0  0  0  0  0  0
    7.4293   -0.6467    3.4890 H   0  0  0  0  0  0  0  0  0  0  0  0
    7.9395   -0.7768    1.7852 H   0  0  0  0  0  0  0  0  0  0  0  0
    2.6735   -5.4639    1.5209 H   0  0  0  0  0  0  0  0  0  0  0  0
    2.0032   -3.9499    2.1446 H   0  0  0  0  0  0  0  0  0  0  0  0
    7.5717   -6.2808    1.0895 H   0  0  0  0  0  0  0  0  0  0  0  0
    8.7031   -4.9207    1.3229 H   0  0  0  0  0  0  0  0  0  0  0  0
    2.7162   -3.0195   -0.0419 H   0  0  0  0  0  0  0  0  0  0  0  0
  1  2  2  0  0  0  0
  1  4  1  0  0  0  0
  2  5  1  0  0  0  0
  3  4  2  0  0  0  0
  3  6  1  0  0  0  0
  3  7  1  0  0  0  0
  4 16  1  0  0  0  0
  5  6  2  0  0  0  0
  5 23  1  0  0  0  0
  6 24  1  0  0  0  0
  7 19  1  0  0  0  0
  7 21  2  0  0  0  0
  8 17  1  0  0  0  0
  8 20  1  0  0  0  0
  8 22  2  0  0  0  0
  9 10  1  0  0  0  0
  9 11  1  0  0  0  0
 10 12  1  0  0  0  0
 11 13  1  0  0  0  0
 12 18  1  0  0  0  0
 13 14  1  0  0  0  0
 13 18  1  0  0  0  0
 15 23  1  0  0  0  0
 16 18  1  0  0  0  0
 17 24  1  0  0  0  0
  1 25  1  0  0  0  0
  2 26  1  0  0  0  0
  9 27  1  0  0  0  0
  9 28  1  0  0  0  0
 10 29  1  0  0  0  0
 10 30  1  0  0  0  0
 11 31  1  0  0  0  0
 11 32  1  0  0  0  0
 12 33  1  0  0  0  0
 12 34  1  0  0  0  0
 13 35  1  0  0  0  0
 14 36  1  0  0  0  0
 14 37  1  0  0  0  0
 14 38  1  0  0  0  0
 15 39  1  0  0  0  0
 15 40  1  0  0  0  0
 15 41  1  0  0  0  0
 16 42  1  0  0  0  0
 16 43  1  0  0  0  0
 17 44  1  0  0  0  0
 17 45  1  0  0  0  0
 18 46  1  0  0  0  0
M  CHG  3  18   1  19  -1  20  -1
M  END
$$$$
