AVX62807_0
  -OEChem-04011315033D

 66 70  0     1  0  0  0  0  0999 V2000
    6.3695    3.2214   -0.9909 C   0  0  0  0  0  0  0  0  0  0  0  0
    4.2840   -5.7050    0.0592 C   0  0  0  0  0  0  0  0  0  0  0  0
    6.9354    2.1270   -1.6449 C   0  0  0  0  0  0  0  0  0  0  0  0
    5.5477    3.0224    0.1185 C   0  0  0  0  0  0  0  0  0  0  0  0
    4.8850   -5.0898   -1.0389 C   0  0  0  0  0  0  0  0  0  0  0  0
    3.6993   -4.9289    1.0600 C   0  0  0  0  0  0  0  0  0  0  0  0
    6.6793    0.8336   -1.1896 C   0  0  0  0  0  0  0  0  0  0  0  0
    5.2917    1.7291    0.5738 C   0  0  0  0  0  0  0  0  0  0  0  0
    4.9014   -3.6984   -1.1363 C   0  0  0  0  0  0  0  0  0  0  0  0
    3.7158   -3.5375    0.9626 C   0  0  0  0  0  0  0  0  0  0  0  0
   -1.9346    3.5866   -0.8385 C   0  0  0  0  0  0  0  0  0  0  0  0
   -2.7883    4.2981   -1.6819 C   0  0  0  0  0  0  0  0  0  0  0  0
   -0.5479    2.9957   -2.7289 C   0  0  0  0  0  0  0  0  0  0  0  0
    5.8575    0.6346   -0.0803 C   0  0  0  0  0  0  0  0  0  0  0  0
    4.3168   -2.9222   -0.1355 C   0  0  0  0  0  0  0  0  0  0  0  0
   -0.8134    2.9408   -1.3604 C   0  0  0  0  0  0  0  0  0  0  0  0
   -2.5164    4.3646   -3.0487 C   0  0  0  0  0  0  0  0  0  0  0  0
   -1.4086    3.6955   -3.5751 C   0  0  0  0  0  0  0  0  0  0  0  0
    0.6352    2.3028   -3.2789 C   0  0  0  0  0  0  0  0  0  0  0  0
    1.9568   -0.6934   -0.3821 C   0  0  0  0  0  0  0  0  0  0  0  0
   -1.2774   -1.2119    0.1442 C   0  0  0  0  0  0  0  0  0  0  0  0
   -0.0574   -1.1371    1.0455 C   0  0  0  0  0  0  0  0  0  0  0  0
   -1.4814    0.2286   -0.2680 C   0  0  0  0  0  0  0  0  0  0  0  0
   -2.8291    5.3813   -5.1114 C   0  0  0  0  0  0  0  0  0  0  0  0
   -2.2122    4.1314   -5.7081 C   0  0  0  0  0  0  0  0  0  0  0  0
    0.8428   -0.0843    0.4049 C   0  0  2  0  0  0  0  0  0  0  0  0
    5.5794   -0.7668    0.4136 C   0  0  0  0  0  0  0  0  0  0  0  0
    0.0882    2.1910   -0.4245 C   0  0  0  0  0  0  0  0  0  0  0  0
    4.3346   -1.4068   -0.2407 C   0  0  2  0  0  0  0  0  0  0  0  0
    3.1334   -0.8386    0.3279 N   0  0  0  0  0  0  0  0  0  0  0  0
   -0.0716    0.7072   -0.5201 N   0  3  2  0  0  0  0  0  0  0  0  0
    1.7457    2.9461   -3.3505 O   0  5  0  0  0  0  0  0  0  0  0  0
    0.5088    1.0834   -3.6649 O   0  0  0  0  0  0  0  0  0  0  0  0
    1.7676   -1.0122   -1.5501 O   0  0  0  0  0  0  0  0  0  0  0  0
   -3.3798    5.0951   -3.8227 O   0  0  0  0  0  0  0  0  0  0  0  0
   -1.1069    3.6958   -4.9119 O   0  0  0  0  0  0  0  0  0  0  0  0
    6.5701    4.2284   -1.3447 H   0  0  0  0  0  0  0  0  0  0  0  0
    4.2701   -6.7884    0.1342 H   0  0  0  0  0  0  0  0  0  0  0  0
    7.5761    2.2818   -2.5081 H   0  0  0  0  0  0  0  0  0  0  0  0
    5.1079    3.8743    0.6286 H   0  0  0  0  0  0  0  0  0  0  0  0
    5.3393   -5.6940   -1.8188 H   0  0  0  0  0  0  0  0  0  0  0  0
    3.2303   -5.4076    1.9145 H   0  0  0  0  0  0  0  0  0  0  0  0
    7.1243   -0.0131   -1.7056 H   0  0  0  0  0  0  0  0  0  0  0  0
    4.6501    1.5836    1.4389 H   0  0  0  0  0  0  0  0  0  0  0  0
    5.3721   -3.2277   -1.9954 H   0  0  0  0  0  0  0  0  0  0  0  0
    3.2579   -2.9409    1.7472 H   0  0  0  0  0  0  0  0  0  0  0  0
   -2.1499    3.5454    0.2262 H   0  0  0  0  0  0  0  0  0  0  0  0
   -3.6546    4.8053   -1.2658 H   0  0  0  0  0  0  0  0  0  0  0  0
   -1.0663   -1.8359   -0.7323 H   0  0  0  0  0  0  0  0  0  0  0  0
   -2.1503   -1.6259    0.6567 H   0  0  0  0  0  0  0  0  0  0  0  0
   -0.3607   -0.7996    2.0444 H   0  0  0  0  0  0  0  0  0  0  0  0
    0.4239   -2.1138    1.1586 H   0  0  0  0  0  0  0  0  0  0  0  0
   -2.0607    0.3483   -1.1873 H   0  0  0  0  0  0  0  0  0  0  0  0
   -1.9056    0.8294    0.5438 H   0  0  0  0  0  0  0  0  0  0  0  0
   -2.0912    6.1862   -5.0064 H   0  0  0  0  0  0  0  0  0  0  0  0
   -3.6426    5.7440   -5.7475 H   0  0  0  0  0  0  0  0  0  0  0  0
   -2.9403    3.3134   -5.7732 H   0  0  0  0  0  0  0  0  0  0  0  0
   -1.8369    4.3361   -6.7156 H   0  0  0  0  0  0  0  0  0  0  0  0
    1.2614    0.5943    1.1557 H   0  0  0  0  0  0  0  0  0  0  0  0
    5.4418   -0.7137    1.5027 H   0  0  0  0  0  0  0  0  0  0  0  0
    6.4684   -1.3937    0.2637 H   0  0  0  0  0  0  0  0  0  0  0  0
    1.1418    2.4078   -0.6310 H   0  0  0  0  0  0  0  0  0  0  0  0
   -0.1102    2.4622    0.6180 H   0  0  0  0  0  0  0  0  0  0  0  0
    4.3253   -1.1350   -1.3041 H   0  0  0  0  0  0  0  0  0  0  0  0
    3.1551   -0.5313    1.2956 H   0  0  0  0  0  0  0  0  0  0  0  0
    0.1559    0.4433   -1.4890 H   0  0  0  0  0  0  0  0  0  0  0  0
  1  3  2  0  0  0  0
  1  4  1  0  0  0  0
  2  5  2  0  0  0  0
  2  6  1  0  0  0  0
  3  7  1  0  0  0  0
  4  8  2  0  0  0  0
  5  9  1  0  0  0  0
  6 10  2  0  0  0  0
  7 14  2  0  0  0  0
  8 14  1  0  0  0  0
  9 15  2  0  0  0  0
 10 15  1  0  0  0  0
 11 12  1  0  0  0  0
 11 16  2  0  0  0  0
 12 17  2  0  0  0  0
 13 16  1  0  0  0  0
 13 18  2  0  0  0  0
 13 19  1  0  0  0  0
 14 27  1  0  0  0  0
 15 29  1  0  0  0  0
 16 28  1  0  0  0  0
 17 18  1  0  0  0  0
 17 35  1  0  0  0  0
 18 36  1  0  0  0  0
 19 32  1  0  0  0  0
 19 33  2  0  0  0  0
 20 26  1  0  0  0  0
 20 30  1  0  0  0  0
 20 34  2  0  0  0  0
 21 22  1  0  0  0  0
 21 23  1  0  0  0  0
 22 26  1  0  0  0  0
 23 31  1  0  0  0  0
 24 25  1  0  0  0  0
 24 35  1  0  0  0  0
 25 36  1  0  0  0  0
 26 31  1  0  0  0  0
 27 29  1  0  0  0  0
 28 31  1  0  0  0  0
 29 30  1  0  0  0  0
  1 37  1  0  0  0  0
  2 38  1  0  0  0  0
  3 39  1  0  0  0  0
  4 40  1  0  0  0  0
  5 41  1  0  0  0  0
  6 42  1  0  0  0  0
  7 43  1  0  0  0  0
  8 44  1  0  0  0  0
  9 45  1  0  0  0  0
 10 46  1  0  0  0  0
 11 47  1  0  0  0  0
 12 48  1  0  0  0  0
 21 49  1  0  0  0  0
 21 50  1  0  0  0  0
 22 51  1  0  0  0  0
 22 52  1  0  0  0  0
 23 53  1  0  0  0  0
 23 54  1  0  0  0  0
 24 55  1  0  0  0  0
 24 56  1  0  0  0  0
 25 57  1  0  0  0  0
 25 58  1  0  0  0  0
 26 59  1  0  0  0  0
 27 60  1  0  0  0  0
 27 61  1  0  0  0  0
 28 62  1  0  0  0  0
 28 63  1  0  0  0  0
 29 64  1  0  0  0  0
 30 65  1  0  0  0  0
 31 66  1  0  0  0  0
M  CHG  2  31   1  32  -1
M  END
$$$$
