AVX62772_0
  -OEChem-04011315033D

 55 59  0     0  0  0  0  0  0999 V2000
   -1.9627   -7.1788    2.2969 C   0  0  0  0  0  0  0  0  0  0  0  0
   -3.8411    1.6891    1.7379 C   0  0  0  0  0  0  0  0  0  0  0  0
   -2.6178    1.1718    1.2650 C   0  0  0  0  0  0  0  0  0  0  0  0
   -2.2171   -6.2488    3.3047 C   0  0  0  0  0  0  0  0  0  0  0  0
   -2.8719   -7.3406    1.2514 C   0  0  0  0  0  0  0  0  0  0  0  0
   -4.9660    0.8695    1.8671 C   0  0  0  0  0  0  0  0  0  0  0  0
   -2.4953   -0.1752    0.9122 C   0  0  0  0  0  0  0  0  0  0  0  0
   -3.3807   -5.4805    3.2672 C   0  0  0  0  0  0  0  0  0  0  0  0
   -4.0355   -6.5724    1.2139 C   0  0  0  0  0  0  0  0  0  0  0  0
   -6.3871   -7.0740    4.2424 C   0  0  0  0  0  0  0  0  0  0  0  0
   -6.3549   -7.8989    5.3693 C   0  0  0  0  0  0  0  0  0  0  0  0
   -4.8219   -0.4562    1.5132 C   0  0  0  0  0  0  0  0  0  0  0  0
   -3.6182   -0.9653    1.0482 C   0  0  0  0  0  0  0  0  0  0  0  0
   -4.2900   -5.6423    2.2218 C   0  0  0  0  0  0  0  0  0  0  0  0
   -6.4215   -5.6751    4.3803 C   0  0  0  0  0  0  0  0  0  0  0  0
   -6.4242   -5.0852    5.6466 C   0  0  0  0  0  0  0  0  0  0  0  0
   -6.3584   -7.2913    6.6080 C   0  0  0  0  0  0  0  0  0  0  0  0
   -6.3920   -5.9221    6.7430 C   0  0  0  0  0  0  0  0  0  0  0  0
   -5.7967   -1.5459    1.5342 C   0  0  0  0  0  0  0  0  0  0  0  0
   -3.8063   -2.3880    0.7652 C   0  0  0  0  0  0  0  0  0  0  0  0
   -6.4535   -4.8572    3.1599 C   0  0  0  0  0  0  0  0  0  0  0  0
   -5.5250   -4.8274    2.1816 C   0  0  0  0  0  0  0  0  0  0  0  0
   -6.4583   -3.6403    5.8320 C   0  0  0  0  0  0  0  0  0  0  0  0
   -6.3496   -6.8073    8.7170 C   0  0  0  0  0  0  0  0  0  0  0  0
   -5.7252   -3.9702    0.9509 C   0  0  0  0  0  0  0  0  0  0  0  0
   -5.3108   -2.9365    6.5816 C   0  0  0  0  0  0  0  0  0  0  0  0
   -5.0565   -1.5074    6.1187 C   0  0  0  0  0  0  0  0  0  0  0  0
   -5.1206   -2.6594    1.0809 N   0  0  0  0  0  0  0  0  0  0  0  0
   -6.9533   -1.4216    1.8919 O   0  0  0  0  0  0  0  0  0  0  0  0
   -2.9311   -3.1183    0.3388 O   0  0  0  0  0  0  0  0  0  0  0  0
   -7.4083   -2.9659    5.3887 O   0  0  0  0  0  0  0  0  0  0  0  0
   -6.3295   -7.9286    7.8101 O   0  0  0  0  0  0  0  0  0  0  0  0
   -6.3887   -5.5309    8.0464 O   0  0  0  0  0  0  0  0  0  0  0  0
   -4.7017   -1.5114    4.7418 O   0  0  0  0  0  0  0  0  0  0  0  0
   -1.0561   -7.7761    2.3254 H   0  0  0  0  0  0  0  0  0  0  0  0
   -3.9078    2.7406    2.0052 H   0  0  0  0  0  0  0  0  0  0  0  0
   -1.7591    1.8320    1.1740 H   0  0  0  0  0  0  0  0  0  0  0  0
   -1.5087   -6.1218    4.1183 H   0  0  0  0  0  0  0  0  0  0  0  0
   -2.6733   -8.0639    0.4660 H   0  0  0  0  0  0  0  0  0  0  0  0
   -5.9063    1.2676    2.2302 H   0  0  0  0  0  0  0  0  0  0  0  0
   -1.5550   -0.5722    0.5486 H   0  0  0  0  0  0  0  0  0  0  0  0
   -3.5653   -4.7596    4.0602 H   0  0  0  0  0  0  0  0  0  0  0  0
   -4.7345   -6.7101    0.3924 H   0  0  0  0  0  0  0  0  0  0  0  0
   -6.3864   -7.5333    3.2561 H   0  0  0  0  0  0  0  0  0  0  0  0
   -6.3296   -8.9779    5.2676 H   0  0  0  0  0  0  0  0  0  0  0  0
   -7.3329   -4.2209    3.0796 H   0  0  0  0  0  0  0  0  0  0  0  0
   -7.2323   -6.8925    9.3613 H   0  0  0  0  0  0  0  0  0  0  0  0
   -5.4516   -6.8469    9.3444 H   0  0  0  0  0  0  0  0  0  0  0  0
   -6.7920   -3.8379    0.7340 H   0  0  0  0  0  0  0  0  0  0  0  0
   -5.2984   -4.4729    0.0754 H   0  0  0  0  0  0  0  0  0  0  0  0
   -5.5775   -2.9145    7.6437 H   0  0  0  0  0  0  0  0  0  0  0  0
   -4.4028   -3.5314    6.4333 H   0  0  0  0  0  0  0  0  0  0  0  0
   -5.9378   -0.8726    6.2555 H   0  0  0  0  0  0  0  0  0  0  0  0
   -4.2211   -1.0774    6.6804 H   0  0  0  0  0  0  0  0  0  0  0  0
   -5.4496   -1.9017    4.2616 H   0  0  0  0  0  0  0  0  0  0  0  0
  1  4  2  0  0  0  0
  1  5  1  0  0  0  0
  2  3  2  0  0  0  0
  2  6  1  0  0  0  0
  3  7  1  0  0  0  0
  4  8  1  0  0  0  0
  5  9  2  0  0  0  0
  6 12  2  0  0  0  0
  7 13  2  0  0  0  0
  8 14  2  0  0  0  0
  9 14  1  0  0  0  0
 10 11  2  0  0  0  0
 10 15  1  0  0  0  0
 11 17  1  0  0  0  0
 12 13  1  0  0  0  0
 12 19  1  0  0  0  0
 13 20  1  0  0  0  0
 14 22  1  0  0  0  0
 15 16  2  0  0  0  0
 15 21  1  0  0  0  0
 16 18  1  0  0  0  0
 16 23  1  0  0  0  0
 17 18  2  0  0  0  0
 17 32  1  0  0  0  0
 18 33  1  0  0  0  0
 19 28  1  0  0  0  0
 19 29  2  0  0  0  0
 20 28  1  0  0  0  0
 20 30  2  0  0  0  0
 21 22  2  0  0  0  0
 22 25  1  0  0  0  0
 23 26  1  0  0  0  0
 23 31  2  0  0  0  0
 24 32  1  0  0  0  0
 24 33  1  0  0  0  0
 25 28  1  0  0  0  0
 26 27  1  0  0  0  0
 27 34  1  0  0  0  0
  1 35  1  0  0  0  0
  2 36  1  0  0  0  0
  3 37  1  0  0  0  0
  4 38  1  0  0  0  0
  5 39  1  0  0  0  0
  6 40  1  0  0  0  0
  7 41  1  0  0  0  0
  8 42  1  0  0  0  0
  9 43  1  0  0  0  0
 10 44  1  0  0  0  0
 11 45  1  0  0  0  0
 21 46  1  0  0  0  0
 24 47  1  0  0  0  0
 24 48  1  0  0  0  0
 25 49  1  0  0  0  0
 25 50  1  0  0  0  0
 26 51  1  0  0  0  0
 26 52  1  0  0  0  0
 27 53  1  0  0  0  0
 27 54  1  0  0  0  0
 34 55  1  0  0  0  0
M  END
$$$$
