AVX62808_0
  -OEChem-04011315033D

 63 67  0     1  0  0  0  0  0999 V2000
    4.2446   -5.6983    0.0683 C   0  0  0  0  0  0  0  0  0  0  0  0
    7.8395    0.3760    1.5092 C   0  0  0  0  0  0  0  0  0  0  0  0
    4.9234   -5.0894   -0.9871 C   0  0  0  0  0  0  0  0  0  0  0  0
    3.5948   -4.9163    1.0233 C   0  0  0  0  0  0  0  0  0  0  0  0
    7.2678    0.9374    0.3675 C   0  0  0  0  0  0  0  0  0  0  0  0
    7.2754   -0.7632    2.0835 C   0  0  0  0  0  0  0  0  0  0  0  0
    4.9527   -3.6985   -1.0875 C   0  0  0  0  0  0  0  0  0  0  0  0
    3.6241   -3.5254    0.9229 C   0  0  0  0  0  0  0  0  0  0  0  0
    6.1319    0.3598   -0.1999 C   0  0  0  0  0  0  0  0  0  0  0  0
    6.1396   -1.3408    1.5162 C   0  0  0  0  0  0  0  0  0  0  0  0
    2.0049    2.3770   -2.0064 C   0  0  0  0  0  0  0  0  0  0  0  0
    3.2925    2.8009   -2.3366 C   0  0  0  0  0  0  0  0  0  0  0  0
    2.2425    3.3474    0.1954 C   0  0  0  0  0  0  0  0  0  0  0  0
    4.3030   -2.9164   -0.1325 C   0  0  0  0  0  0  0  0  0  0  0  0
    5.5678   -0.7793    0.3745 C   0  0  0  0  0  0  0  0  0  0  0  0
    1.4789    2.6543   -0.7443 C   0  0  0  0  0  0  0  0  0  0  0  0
    4.0519    3.5055   -1.4022 C   0  0  0  0  0  0  0  0  0  0  0  0
    3.5352    3.7597   -0.1292 C   0  0  0  0  0  0  0  0  0  0  0  0
    1.6853    3.6310    1.5338 C   0  0  0  0  0  0  0  0  0  0  0  0
    1.9568   -0.6934   -0.3821 C   0  0  0  0  0  0  0  0  0  0  0  0
   -1.2774   -1.2119    0.1442 C   0  0  0  0  0  0  0  0  0  0  0  0
   -0.0574   -1.1371    1.0455 C   0  0  0  0  0  0  0  0  0  0  0  0
   -1.4814    0.2286   -0.2680 C   0  0  0  0  0  0  0  0  0  0  0  0
    5.8393    4.9012   -0.9090 C   0  0  0  0  0  0  0  0  0  0  0  0
    5.6388    4.4814    0.5341 C   0  0  0  0  0  0  0  0  0  0  0  0
    0.8428   -0.0843    0.4049 C   0  0  2  0  0  0  0  0  0  0  0  0
    0.0882    2.1910   -0.4245 C   0  0  0  0  0  0  0  0  0  0  0  0
    4.3346   -1.4068   -0.2407 C   0  0  0  0  0  0  0  0  0  0  0  0
    3.1334   -0.8386    0.3279 N   0  0  0  0  0  0  0  0  0  0  0  0
   -0.0716    0.7072   -0.5201 N   0  3  2  0  0  0  0  0  0  0  0  0
    1.0359    4.7262    1.7094 O   0  5  0  0  0  0  0  0  0  0  0  0
    1.8714    2.7719    2.4715 O   0  0  0  0  0  0  0  0  0  0  0  0
    1.7676   -1.0122   -1.5501 O   0  0  0  0  0  0  0  0  0  0  0  0
    5.3011    3.9129   -1.7918 O   0  0  0  0  0  0  0  0  0  0  0  0
    4.2436    4.4175    0.8422 O   0  0  0  0  0  0  0  0  0  0  0  0
    4.2208   -6.7814    0.1456 H   0  0  0  0  0  0  0  0  0  0  0  0
    8.7247    0.8251    1.9500 H   0  0  0  0  0  0  0  0  0  0  0  0
    5.4285   -5.6982   -1.7314 H   0  0  0  0  0  0  0  0  0  0  0  0
    3.0653   -5.3901    1.8446 H   0  0  0  0  0  0  0  0  0  0  0  0
    7.7075    1.8238   -0.0805 H   0  0  0  0  0  0  0  0  0  0  0  0
    7.7209   -1.2012    2.9718 H   0  0  0  0  0  0  0  0  0  0  0  0
    5.4843   -3.2327   -1.9132 H   0  0  0  0  0  0  0  0  0  0  0  0
    3.1152   -2.9241    1.6717 H   0  0  0  0  0  0  0  0  0  0  0  0
    5.6931    0.8042   -1.0894 H   0  0  0  0  0  0  0  0  0  0  0  0
    5.7069   -2.2282    1.9706 H   0  0  0  0  0  0  0  0  0  0  0  0
    1.4172    1.8345   -2.7425 H   0  0  0  0  0  0  0  0  0  0  0  0
    3.6912    2.5881   -3.3247 H   0  0  0  0  0  0  0  0  0  0  0  0
   -1.0663   -1.8359   -0.7323 H   0  0  0  0  0  0  0  0  0  0  0  0
   -2.1503   -1.6259    0.6567 H   0  0  0  0  0  0  0  0  0  0  0  0
   -0.3607   -0.7996    2.0444 H   0  0  0  0  0  0  0  0  0  0  0  0
    0.4239   -2.1138    1.1586 H   0  0  0  0  0  0  0  0  0  0  0  0
   -2.0607    0.3483   -1.1873 H   0  0  0  0  0  0  0  0  0  0  0  0
   -1.9056    0.8294    0.5438 H   0  0  0  0  0  0  0  0  0  0  0  0
    5.3551    5.8623   -1.1217 H   0  0  0  0  0  0  0  0  0  0  0  0
    6.9065    4.9995   -1.1309 H   0  0  0  0  0  0  0  0  0  0  0  0
    6.0867    3.5003    0.7350 H   0  0  0  0  0  0  0  0  0  0  0  0
    6.0961    5.2109    1.2097 H   0  0  0  0  0  0  0  0  0  0  0  0
    1.2614    0.5943    1.1557 H   0  0  0  0  0  0  0  0  0  0  0  0
   -0.1987    2.4732    0.5942 H   0  0  0  0  0  0  0  0  0  0  0  0
   -0.6430    2.6310   -1.1112 H   0  0  0  0  0  0  0  0  0  0  0  0
    4.2987   -1.1203   -1.2999 H   0  0  0  0  0  0  0  0  0  0  0  0
    3.1551   -0.5313    1.2956 H   0  0  0  0  0  0  0  0  0  0  0  0
    0.1559    0.4433   -1.4890 H   0  0  0  0  0  0  0  0  0  0  0  0
  1  3  2  0  0  0  0
  1  4  1  0  0  0  0
  2  5  2  0  0  0  0
  2  6  1  0  0  0  0
  3  7  1  0  0  0  0
  4  8  2  0  0  0  0
  5  9  1  0  0  0  0
  6 10  2  0  0  0  0
  7 14  2  0  0  0  0
  8 14  1  0  0  0  0
  9 15  2  0  0  0  0
 10 15  1  0  0  0  0
 11 12  1  0  0  0  0
 11 16  2  0  0  0  0
 12 17  2  0  0  0  0
 13 16  1  0  0  0  0
 13 18  2  0  0  0  0
 13 19  1  0  0  0  0
 14 28  1  0  0  0  0
 15 28  1  0  0  0  0
 16 27  1  0  0  0  0
 17 18  1  0  0  0  0
 17 34  1  0  0  0  0
 18 35  1  0  0  0  0
 19 31  1  0  0  0  0
 19 32  2  0  0  0  0
 20 26  1  0  0  0  0
 20 29  1  0  0  0  0
 20 33  2  0  0  0  0
 21 22  1  0  0  0  0
 21 23  1  0  0  0  0
 22 26  1  0  0  0  0
 23 30  1  0  0  0  0
 24 25  1  0  0  0  0
 24 34  1  0  0  0  0
 25 35  1  0  0  0  0
 26 30  1  0  0  0  0
 27 30  1  0  0  0  0
 28 29  1  0  0  0  0
  1 36  1  0  0  0  0
  2 37  1  0  0  0  0
  3 38  1  0  0  0  0
  4 39  1  0  0  0  0
  5 40  1  0  0  0  0
  6 41  1  0  0  0  0
  7 42  1  0  0  0  0
  8 43  1  0  0  0  0
  9 44  1  0  0  0  0
 10 45  1  0  0  0  0
 11 46  1  0  0  0  0
 12 47  1  0  0  0  0
 21 48  1  0  0  0  0
 21 49  1  0  0  0  0
 22 50  1  0  0  0  0
 22 51  1  0  0  0  0
 23 52  1  0  0  0  0
 23 53  1  0  0  0  0
 24 54  1  0  0  0  0
 24 55  1  0  0  0  0
 25 56  1  0  0  0  0
 25 57  1  0  0  0  0
 26 58  1  0  0  0  0
 27 59  1  0  0  0  0
 27 60  1  0  0  0  0
 28 61  1  0  0  0  0
 29 62  1  0  0  0  0
 30 63  1  0  0  0  0
M  CHG  2  30   1  31  -1
M  END
$$$$
