AVX62527_0
  -OEChem-04011315033D

 35 37  0     0  0  0  0  0  0999 V2000
    0.3042   -9.3660   -2.8466 C   0  0  0  0  0  0  0  0  0  0  0  0
    0.3519   -2.0775    0.4422 C   0  0  0  0  0  0  0  0  0  0  0  0
    0.0489   -1.0083   -0.4029 C   0  0  0  0  0  0  0  0  0  0  0  0
   -0.3204   -8.1934   -2.3549 C   0  0  0  0  0  0  0  0  0  0  0  0
   -0.1402   -2.5032   -2.3253 C   0  0  0  0  0  0  0  0  0  0  0  0
    1.3170   -8.9691   -3.6916 C   0  0  0  0  0  0  0  0  0  0  0  0
    0.1604   -3.5565   -1.4826 C   0  0  0  0  0  0  0  0  0  0  0  0
    0.4008   -3.3366   -0.1231 C   0  0  0  0  0  0  0  0  0  0  0  0
   -0.1948   -1.2188   -1.7733 C   0  0  0  0  0  0  0  0  0  0  0  0
    0.3295   -7.1156   -2.9145 C   0  0  0  0  0  0  0  0  0  0  0  0
    0.3033   -4.9945   -1.6833 C   0  0  0  0  0  0  0  0  0  0  0  0
    0.6440   -5.6207   -0.3620 C   0  0  0  0  0  0  0  0  0  0  0  0
    0.1693   -5.6939   -2.8118 C   0  0  0  0  0  0  0  0  0  0  0  0
   -0.7652   -0.1269   -3.9696 C   0  0  0  0  0  0  0  0  0  0  0  0
   -1.9772    1.2710   -5.6744 C   0  0  0  0  0  0  0  0  0  0  0  0
   -1.0404    1.2790   -4.4716 C   0  0  0  0  0  0  0  0  0  0  0  0
    1.3229   -7.5990   -3.7254 N   0  0  0  0  0  0  0  0  0  0  0  0
    0.6826   -4.5427    0.5281 N   0  0  0  0  0  0  0  0  0  0  0  0
   -0.4932   -0.1285   -2.5927 N   0  0  0  0  0  0  0  0  0  0  0  0
   -3.1198    0.7770   -5.4600 O   0  5  0  0  0  0  0  0  0  0  0  0
    0.8373   -6.8023   -0.1432 O   0  0  0  0  0  0  0  0  0  0  0  0
   -0.7898   -1.1009   -4.7147 O   0  0  0  0  0  0  0  0  0  0  0  0
   -1.4947    1.7655   -6.7318 O   0  0  0  0  0  0  0  0  0  0  0  0
    0.0454  -10.3889   -2.6111 H   0  0  0  0  0  0  0  0  0  0  0  0
    0.5404   -1.9165    1.4974 H   0  0  0  0  0  0  0  0  0  0  0  0
    0.0036   -0.0033    0.0115 H   0  0  0  0  0  0  0  0  0  0  0  0
   -1.1531   -8.1446   -1.6665 H   0  0  0  0  0  0  0  0  0  0  0  0
   -0.3282   -2.6661   -3.3815 H   0  0  0  0  0  0  0  0  0  0  0  0
    2.0321   -9.5372   -4.2694 H   0  0  0  0  0  0  0  0  0  0  0  0
   -0.0515   -5.1413   -3.7251 H   0  0  0  0  0  0  0  0  0  0  0  0
   -1.4862    1.8668   -3.6605 H   0  0  0  0  0  0  0  0  0  0  0  0
   -0.0903    1.7521   -4.7468 H   0  0  0  0  0  0  0  0  0  0  0  0
    1.9653   -7.0374   -4.2682 H   0  0  0  0  0  0  0  0  0  0  0  0
    0.8882   -4.6244    1.5169 H   0  0  0  0  0  0  0  0  0  0  0  0
   -0.5182    0.7897   -2.1353 H   0  0  0  0  0  0  0  0  0  0  0  0
  1  4  1  0  0  0  0
  1  6  2  0  0  0  0
  2  3  1  0  0  0  0
  2  8  2  0  0  0  0
  3  9  2  0  0  0  0
  4 10  2  0  0  0  0
  5  7  2  0  0  0  0
  5  9  1  0  0  0  0
  6 17  1  0  0  0  0
  7  8  1  0  0  0  0
  7 11  1  0  0  0  0
  8 18  1  0  0  0  0
  9 19  1  0  0  0  0
 10 13  1  0  0  0  0
 10 17  1  0  0  0  0
 11 12  1  0  0  0  0
 11 13  2  0  0  0  0
 12 18  1  0  0  0  0
 12 21  2  0  0  0  0
 14 16  1  0  0  0  0
 14 19  1  0  0  0  0
 14 22  2  0  0  0  0
 15 16  1  0  0  0  0
 15 20  1  0  0  0  0
 15 23  2  0  0  0  0
  1 24  1  0  0  0  0
  2 25  1  0  0  0  0
  3 26  1  0  0  0  0
  4 27  1  0  0  0  0
  5 28  1  0  0  0  0
  6 29  1  0  0  0  0
 13 30  1  0  0  0  0
 16 31  1  0  0  0  0
 16 32  1  0  0  0  0
 17 33  1  0  0  0  0
 18 34  1  0  0  0  0
 19 35  1  0  0  0  0
M  CHG  1  20  -1
M  END
$$$$
