AVX62730_0
  -OEChem-04011315033D

 32 34  0     0  0  0  0  0  0999 V2000
    0.2979   -1.1769    1.7792 C   0  0  0  0  0  0  0  0  0  0  0  0
    0.5196   -2.4525    2.2989 C   0  0  0  0  0  0  0  0  0  0  0  0
    0.7855    5.0922   -1.0176 C   0  0  0  0  0  0  0  0  0  0  0  0
    0.1764   -0.9939    0.4014 C   0  0  0  0  0  0  0  0  0  0  0  0
    0.2866   -2.0843   -0.4619 C   0  0  0  0  0  0  0  0  0  0  0  0
    0.6167   -3.5455    1.4372 C   0  0  0  0  0  0  0  0  0  0  0  0
    0.5219   -3.3582    0.0560 C   0  0  0  0  0  0  0  0  0  0  0  0
   -0.3665    4.4830   -1.4691 C   0  0  0  0  0  0  0  0  0  0  0  0
    0.5469    2.7593   -0.4668 C   0  0  0  0  0  0  0  0  0  0  0  0
   -0.0621    0.3545   -0.0992 C   0  0  0  0  0  0  0  0  0  0  0  0
    0.7794    1.4014    0.0561 C   0  0  0  0  0  0  0  0  0  0  0  0
    0.1665   -1.8964   -1.9243 C   0  0  0  0  0  0  0  0  0  0  0  0
   -1.4328    5.2355   -2.2721 C   0  0  0  0  0  0  0  0  0  0  0  0
    0.5543   -5.8390    1.0877 C   0  0  0  0  0  0  0  0  0  0  0  0
    1.2151   -5.5522   -0.2464 C   0  0  0  0  0  0  0  0  0  0  0  0
   -0.5049    3.1452   -1.1546 N   0  0  0  0  0  0  0  0  0  0  0  0
   -0.9974   -1.9869   -2.4598 O   0  5  0  0  0  0  0  0  0  0  0  0
   -2.4402    4.5675   -2.6277 O   0  5  0  0  0  0  0  0  0  0  0  0
    1.2309   -1.6507   -2.5996 O   0  0  0  0  0  0  0  0  0  0  0  0
   -1.2038    6.4527   -2.5029 O   0  0  0  0  0  0  0  0  0  0  0  0
    0.8145   -4.7756    2.0082 O   0  0  0  0  0  0  0  0  0  0  0  0
    0.6415   -4.3858   -0.8429 O   0  0  0  0  0  0  0  0  0  0  0  0
    1.7407    3.9538   -0.1616 S   0  0  0  0  0  0  0  0  0  0  0  0
    0.2185   -0.3357    2.4640 H   0  0  0  0  0  0  0  0  0  0  0  0
    0.6054   -2.5871    3.3737 H   0  0  0  0  0  0  0  0  0  0  0  0
    1.1049    6.1170   -1.1424 H   0  0  0  0  0  0  0  0  0  0  0  0
   -0.9868    0.4950   -0.6668 H   0  0  0  0  0  0  0  0  0  0  0  0
    1.7249    1.2635    0.5750 H   0  0  0  0  0  0  0  0  0  0  0  0
   -0.5320   -5.9552    0.9851 H   0  0  0  0  0  0  0  0  0  0  0  0
    0.9569   -6.7600    1.5207 H   0  0  0  0  0  0  0  0  0  0  0  0
    2.2953   -5.3932   -0.1370 H   0  0  0  0  0  0  0  0  0  0  0  0
    1.0609   -6.3887   -0.9350 H   0  0  0  0  0  0  0  0  0  0  0  0
  1  2  1  0  0  0  0
  1  4  2  0  0  0  0
  2  6  2  0  0  0  0
  3  8  2  0  0  0  0
  3 23  1  0  0  0  0
  4  5  1  0  0  0  0
  4 10  1  0  0  0  0
  5  7  2  0  0  0  0
  5 12  1  0  0  0  0
  6  7  1  0  0  0  0
  6 21  1  0  0  0  0
  7 22  1  0  0  0  0
  8 13  1  0  0  0  0
  8 16  1  0  0  0  0
  9 11  1  0  0  0  0
  9 16  2  0  0  0  0
  9 23  1  0  0  0  0
 10 11  2  0  0  0  0
 12 17  1  0  0  0  0
 12 19  2  0  0  0  0
 13 18  1  0  0  0  0
 13 20  2  0  0  0  0
 14 15  1  0  0  0  0
 14 21  1  0  0  0  0
 15 22  1  0  0  0  0
  1 24  1  0  0  0  0
  2 25  1  0  0  0  0
  3 26  1  0  0  0  0
 10 27  1  0  0  0  0
 11 28  1  0  0  0  0
 14 29  1  0  0  0  0
 14 30  1  0  0  0  0
 15 31  1  0  0  0  0
 15 32  1  0  0  0  0
M  CHG  2  17  -1  18  -1
M  END
$$$$
