AVX62525_3
  -OEChem-04011315033D

 31 33  0     1  0  0  0  0  0999 V2000
   -0.9642   -8.0720    2.5677 C   0  0  0  0  0  0  0  0  0  0  0  0
   -2.3662   -8.0765    2.4477 C   0  0  0  0  0  0  0  0  0  0  0  0
   -0.2451   -6.8728    2.5374 C   0  0  0  0  0  0  0  0  0  0  0  0
   -3.0731   -6.8826    2.2962 C   0  0  0  0  0  0  0  0  0  0  0  0
   -0.9511   -5.6942    2.3828 C   0  0  0  0  0  0  0  0  0  0  0  0
   -2.3395   -5.7135    2.2691 C   0  0  0  0  0  0  0  0  0  0  0  0
   -1.7738   -3.4859    2.1353 C   0  0  0  0  0  0  0  0  0  0  0  0
    3.2750   -1.8212    2.3032 C   0  0  0  0  0  0  0  0  0  0  0  0
    2.1808   -2.7958    2.6597 C   0  0  0  0  0  0  0  0  0  0  0  0
    3.4753   -2.1013    0.8290 C   0  0  0  0  0  0  0  0  0  0  0  0
   -0.4637   -4.2744    2.3284 C   0  0  2  0  0  0  0  0  0  0  0  0
    1.3133   -2.7457    1.4139 C   0  0  2  0  0  0  0  0  0  0  0  0
    0.5047   -4.0085    1.1886 C   0  0  0  0  0  0  0  0  0  0  0  0
   -2.8185   -4.4165    2.1252 N   0  0  0  0  0  0  0  0  0  0  0  0
   -1.8641   -2.2733    2.0161 O   0  0  0  0  0  0  0  0  0  0  0  0
    2.2099   -2.5367    0.3098 O   0  0  0  0  0  0  0  0  0  0  0  0
   -0.4356   -9.0142    2.6865 H   0  0  0  0  0  0  0  0  0  0  0  0
   -2.9021   -9.0216    2.4749 H   0  0  0  0  0  0  0  0  0  0  0  0
    0.8349   -6.8752    2.6351 H   0  0  0  0  0  0  0  0  0  0  0  0
   -4.1531   -6.8824    2.2040 H   0  0  0  0  0  0  0  0  0  0  0  0
    2.9188   -0.7939    2.4441 H   0  0  0  0  0  0  0  0  0  0  0  0
    4.1881   -1.9497    2.8902 H   0  0  0  0  0  0  0  0  0  0  0  0
    2.6102   -3.7950    2.8012 H   0  0  0  0  0  0  0  0  0  0  0  0
    1.6363   -2.5244    3.5683 H   0  0  0  0  0  0  0  0  0  0  0  0
    3.8173   -1.2213    0.2771 H   0  0  0  0  0  0  0  0  0  0  0  0
    4.1949   -2.9123    0.6742 H   0  0  0  0  0  0  0  0  0  0  0  0
   -0.0334   -3.9905    3.2952 H   0  0  0  0  0  0  0  0  0  0  0  0
    0.6370   -1.8854    1.4528 H   0  0  0  0  0  0  0  0  0  0  0  0
    1.1865   -4.8598    1.0822 H   0  0  0  0  0  0  0  0  0  0  0  0
   -0.0525   -3.9176    0.2494 H   0  0  0  0  0  0  0  0  0  0  0  0
   -3.7999   -4.1888    2.0185 H   0  0  0  0  0  0  0  0  0  0  0  0
  1  2  2  0  0  0  0
  1  3  1  0  0  0  0
  2  4  1  0  0  0  0
  3  5  2  0  0  0  0
  4  6  2  0  0  0  0
  5  6  1  0  0  0  0
  5 11  1  0  0  0  0
  6 14  1  0  0  0  0
  7 11  1  0  0  0  0
  7 14  1  0  0  0  0
  7 15  2  0  0  0  0
  8  9  1  0  0  0  0
  8 10  1  0  0  0  0
  9 12  1  0  0  0  0
 10 16  1  0  0  0  0
 11 13  1  0  0  0  0
 12 13  1  0  0  0  0
 12 16  1  0  0  0  0
  1 17  1  0  0  0  0
  2 18  1  0  0  0  0
  3 19  1  0  0  0  0
  4 20  1  0  0  0  0
  8 21  1  0  0  0  0
  8 22  1  0  0  0  0
  9 23  1  0  0  0  0
  9 24  1  0  0  0  0
 10 25  1  0  0  0  0
 10 26  1  0  0  0  0
 11 27  1  0  0  0  0
 12 28  1  0  0  0  0
 13 29  1  0  0  0  0
 13 30  1  0  0  0  0
 14 31  1  0  0  0  0
M  END
$$$$
