AVX62528_0
  -OEChem-04011315033D

 26 28  0     0  0  0  0  0  0999 V2000
    0.3038   -9.3659   -2.8471 C   0  0  0  0  0  0  0  0  0  0  0  0
    0.3519   -2.0775    0.4422 C   0  0  0  0  0  0  0  0  0  0  0  0
    0.0489   -1.0083   -0.4029 C   0  0  0  0  0  0  0  0  0  0  0  0
   -0.3207   -8.1934   -2.3549 C   0  0  0  0  0  0  0  0  0  0  0  0
   -0.1402   -2.5032   -2.3253 C   0  0  0  0  0  0  0  0  0  0  0  0
    1.3162   -8.9689   -3.6925 C   0  0  0  0  0  0  0  0  0  0  0  0
    0.1604   -3.5565   -1.4826 C   0  0  0  0  0  0  0  0  0  0  0  0
    0.4008   -3.3366   -0.1231 C   0  0  0  0  0  0  0  0  0  0  0  0
   -0.1948   -1.2188   -1.7733 C   0  0  0  0  0  0  0  0  0  0  0  0
    0.3290   -7.1154   -2.9147 C   0  0  0  0  0  0  0  0  0  0  0  0
    0.3033   -4.9945   -1.6833 C   0  0  0  0  0  0  0  0  0  0  0  0
    0.6440   -5.6207   -0.3620 C   0  0  0  0  0  0  0  0  0  0  0  0
    0.1688   -5.6938   -2.8118 C   0  0  0  0  0  0  0  0  0  0  0  0
    1.3219   -7.5988   -3.7262 N   0  0  0  0  0  0  0  0  0  0  0  0
    0.6826   -4.5427    0.5281 N   0  0  0  0  0  0  0  0  0  0  0  0
    0.8373   -6.8024   -0.1432 O   0  0  0  0  0  0  0  0  0  0  0  0
   -0.6014    0.2587   -2.8840 Br  0  0  0  0  0  0  0  0  0  0  0  0
    0.0451  -10.3888   -2.6116 H   0  0  0  0  0  0  0  0  0  0  0  0
    0.5402   -1.9167    1.4975 H   0  0  0  0  0  0  0  0  0  0  0  0
    0.0048   -0.0057    0.0168 H   0  0  0  0  0  0  0  0  0  0  0  0
   -1.1530   -8.1446   -1.6661 H   0  0  0  0  0  0  0  0  0  0  0  0
   -0.3271   -2.6707   -3.3812 H   0  0  0  0  0  0  0  0  0  0  0  0
    2.0310   -9.5369   -4.2707 H   0  0  0  0  0  0  0  0  0  0  0  0
   -0.0525   -5.1411   -3.7249 H   0  0  0  0  0  0  0  0  0  0  0  0
    1.9641   -7.0371   -4.2692 H   0  0  0  0  0  0  0  0  0  0  0  0
    0.8882   -4.6244    1.5168 H   0  0  0  0  0  0  0  0  0  0  0  0
  1  4  1  0  0  0  0
  1  6  2  0  0  0  0
  2  3  1  0  0  0  0
  2  8  2  0  0  0  0
  3  9  2  0  0  0  0
  4 10  2  0  0  0  0
  5  7  2  0  0  0  0
  5  9  1  0  0  0  0
  6 14  1  0  0  0  0
  7  8  1  0  0  0  0
  7 11  1  0  0  0  0
  8 15  1  0  0  0  0
  9 17  1  0  0  0  0
 10 13  1  0  0  0  0
 10 14  1  0  0  0  0
 11 12  1  0  0  0  0
 11 13  2  0  0  0  0
 12 15  1  0  0  0  0
 12 16  2  0  0  0  0
  1 18  1  0  0  0  0
  2 19  1  0  0  0  0
  3 20  1  0  0  0  0
  4 21  1  0  0  0  0
  5 22  1  0  0  0  0
  6 23  1  0  0  0  0
 13 24  1  0  0  0  0
 14 25  1  0  0  0  0
 15 26  1  0  0  0  0
M  END
$$$$
