GL5243102_1
  -OEChem-04011315043D

 52 54  0     1  0  0  0  0  0999 V2000
   -2.5816    2.6097   -1.4340 C   0  0  0  0  0  0  0  0  0  0  0  0
   -2.8069    3.5984   -2.3948 C   0  0  0  0  0  0  0  0  0  0  0  0
   -1.6068   -5.0823   -4.7161 C   0  0  0  0  0  0  0  0  0  0  0  0
   -0.7281   -7.0324   -4.1857 C   0  0  0  0  0  0  0  0  0  0  0  0
   -3.1356    0.8641   -3.0384 C   0  0  0  0  0  0  0  0  0  0  0  0
   -2.7449    1.2504   -1.7539 C   0  0  0  0  0  0  0  0  0  0  0  0
   -3.1918    3.1904   -3.6554 C   0  0  0  0  0  0  0  0  0  0  0  0
   -3.3516    1.8599   -3.9686 C   0  0  0  0  0  0  0  0  0  0  0  0
   -1.6599   -5.3058   -3.3605 C   0  0  0  0  0  0  0  0  0  0  0  0
   -3.3125   -0.5518   -3.3987 C   0  0  0  0  0  0  0  0  0  0  0  0
   -1.1964   -3.4476   -1.7145 C   0  0  0  0  0  0  0  0  0  0  0  0
   -3.7966    3.0391   -5.7274 C   0  0  0  0  0  0  0  0  0  0  0  0
    2.0052    0.2419   -1.2482 C   0  0  0  0  0  0  0  0  0  0  0  0
    2.1417    1.4838    0.9196 C   0  0  0  0  0  0  0  0  0  0  0  0
   -2.4894    0.2190   -0.6808 C   0  0  0  0  0  0  0  0  0  0  0  0
   -2.2198   -4.4081   -2.2891 C   0  0  0  0  0  0  0  0  0  0  0  0
   -0.1114    0.7480    0.0855 C   0  0  0  0  0  0  0  0  0  0  0  0
   -0.9724   -1.6815    0.0179 C   0  0  0  0  0  0  0  0  0  0  0  0
    1.3900    0.3982    0.1429 C   0  0  0  0  0  0  0  0  0  0  0  0
   -1.0240   -0.2830   -0.6244 C   0  0  1  0  0  0  0  0  0  0  0  0
   -1.1110   -6.5214   -3.0368 N   0  0  0  0  0  0  0  0  0  0  0  0
   -1.0069   -6.1967   -5.2313 N   0  0  0  0  0  0  0  0  0  0  0  0
   -1.7358   -2.6685   -0.6957 N   0  0  0  0  0  0  0  0  0  0  0  0
   -2.3037   -1.2039   -3.8635 O   0  5  0  0  0  0  0  0  0  0  0  0
   -4.4703   -1.0925   -3.2378 O   0  0  0  0  0  0  0  0  0  0  0  0
   -0.0347   -3.3796   -2.1077 O   0  0  0  0  0  0  0  0  0  0  0  0
   -3.4533    4.0055   -4.7133 O   0  0  0  0  0  0  0  0  0  0  0  0
   -3.7335    1.6754   -5.2617 O   0  0  0  0  0  0  0  0  0  0  0  0
   -2.2769    2.9020   -0.4319 H   0  0  0  0  0  0  0  0  0  0  0  0
   -2.6820    4.6476   -2.1523 H   0  0  0  0  0  0  0  0  0  0  0  0
   -1.9281   -4.2623   -5.3423 H   0  0  0  0  0  0  0  0  0  0  0  0
   -0.2491   -7.9908   -4.3284 H   0  0  0  0  0  0  0  0  0  0  0  0
   -4.8152    3.2437   -6.0766 H   0  0  0  0  0  0  0  0  0  0  0  0
   -3.1055    3.1543   -6.5703 H   0  0  0  0  0  0  0  0  0  0  0  0
    1.8955    1.1593   -1.8362 H   0  0  0  0  0  0  0  0  0  0  0  0
    3.0740    0.0127   -1.1766 H   0  0  0  0  0  0  0  0  0  0  0  0
    1.5363   -0.5765   -1.8023 H   0  0  0  0  0  0  0  0  0  0  0  0
    2.0457    2.4550    0.4225 H   0  0  0  0  0  0  0  0  0  0  0  0
    3.2090    1.2475    0.9842 H   0  0  0  0  0  0  0  0  0  0  0  0
    1.7539    1.5853    1.9390 H   0  0  0  0  0  0  0  0  0  0  0  0
   -3.1648   -0.6261   -0.8709 H   0  0  0  0  0  0  0  0  0  0  0  0
   -2.7875    0.6205    0.2964 H   0  0  0  0  0  0  0  0  0  0  0  0
   -3.0587   -3.8292   -2.6959 H   0  0  0  0  0  0  0  0  0  0  0  0
   -2.6274   -5.0162   -1.4716 H   0  0  0  0  0  0  0  0  0  0  0  0
   -0.4758    0.9016    1.1099 H   0  0  0  0  0  0  0  0  0  0  0  0
   -0.2136    1.7178   -0.4181 H   0  0  0  0  0  0  0  0  0  0  0  0
    0.0606   -2.0437    0.0615 H   0  0  0  0  0  0  0  0  0  0  0  0
   -1.3455   -1.6603    1.0460 H   0  0  0  0  0  0  0  0  0  0  0  0
    1.5250   -0.5421    0.6895 H   0  0  0  0  0  0  0  0  0  0  0  0
   -0.6696   -0.3978   -1.6566 H   0  0  0  0  0  0  0  0  0  0  0  0
   -0.8067   -6.3719   -6.2069 H   0  0  0  0  0  0  0  0  0  0  0  0
   -2.7141   -2.8033   -0.4446 H   0  0  0  0  0  0  0  0  0  0  0  0
  1  2  2  0  0  0  0
  1  6  1  0  0  0  0
  2  7  1  0  0  0  0
  3  9  2  0  0  0  0
  3 22  1  0  0  0  0
  4 21  2  0  0  0  0
  4 22  1  0  0  0  0
  5  6  2  0  0  0  0
  5  8  1  0  0  0  0
  5 10  1  0  0  0  0
  6 15  1  0  0  0  0
  7  8  2  0  0  0  0
  7 27  1  0  0  0  0
  8 28  1  0  0  0  0
  9 16  1  0  0  0  0
  9 21  1  0  0  0  0
 10 24  1  0  0  0  0
 10 25  2  0  0  0  0
 11 16  1  0  0  0  0
 11 23  1  0  0  0  0
 11 26  2  0  0  0  0
 12 27  1  0  0  0  0
 12 28  1  0  0  0  0
 13 19  1  0  0  0  0
 14 19  1  0  0  0  0
 15 20  1  0  0  0  0
 17 19  1  0  0  0  0
 17 20  1  0  0  0  0
 18 20  1  0  0  0  0
 18 23  1  0  0  0  0
  1 29  1  0  0  0  0
  2 30  1  0  0  0  0
  3 31  1  0  0  0  0
  4 32  1  0  0  0  0
 12 33  1  0  0  0  0
 12 34  1  0  0  0  0
 13 35  1  0  0  0  0
 13 36  1  0  0  0  0
 13 37  1  0  0  0  0
 14 38  1  0  0  0  0
 14 39  1  0  0  0  0
 14 40  1  0  0  0  0
 15 41  1  0  0  0  0
 15 42  1  0  0  0  0
 16 43  1  0  0  0  0
 16 44  1  0  0  0  0
 17 45  1  0  0  0  0
 17 46  1  0  0  0  0
 18 47  1  0  0  0  0
 18 48  1  0  0  0  0
 19 49  1  0  0  0  0
 20 50  1  0  0  0  0
 22 51  1  0  0  0  0
 23 52  1  0  0  0  0
M  CHG  1  24  -1
M  END
$$$$
